
  Marvin  06120816592D          

 23 24  0  0  0  0            999 V2000
    1.7793    0.6136    0.0000 C   0  0  0  0  0  0  0  0  0  0  0  0
    3.2020    0.6136    0.0000 N   0  0  0  0  0  0  0  0  0  0  0  0
    3.2020   -0.2125    0.0000 C   0  0  0  0  0  0  0  0  0  0  0  0
    2.4889    1.0285    0.0000 C   0  0  0  0  0  0  0  0  0  0  0  0
    2.4889   -0.6239    0.0000 N   0  0  0  0  0  0  0  0  0  0  0  0
    1.7793   -0.2125    0.0000 C   0  0  0  0  0  0  0  0  0  0  0  0
    1.0593    1.0285    0.0000 C   0  0  0  0  0  0  0  0  0  0  0  0
    3.9185   -0.6239    0.0000 S   0  0  0  0  0  0  0  0  0  0  0  0
   -3.2089   -0.6239    0.0000 C   0  0  0  0  0  0  0  0  0  0  0  0
   -3.9220   -1.0388    0.0000 C   0  0  0  0  0  0  0  0  0  0  0  0
    2.4889    1.8547    0.0000 O   0  0  0  0  0  0  0  0  0  0  0  0
   -0.3634   -0.6342    0.0000 C   0  0  0  0  0  0  0  0  0  0  0  0
    1.0593   -0.6239    0.0000 O   0  0  0  0  0  0  0  0  0  0  0  0
    0.3462    0.6068    0.0000 C   0  0  0  0  0  0  0  0  0  0  0  0
    0.3497   -0.2125    0.0000 C   0  0  0  0  0  0  0  0  0  0  0  0
   -1.0696   -0.2194    0.0000 C   0  0  0  0  0  0  0  0  0  0  0  0
    3.9185    1.0285    0.0000 C   0  0  0  0  0  0  0  0  0  0  0  0
   -1.0765    0.6033    0.0000 C   0  0  0  0  0  0  0  0  0  0  0  0
   -0.3531    1.0079    0.0000 C   0  0  0  0  0  0  0  0  0  0  0  0
   -0.3634   -1.4364    0.0000 O   0  0  0  0  0  0  0  0  0  0  0  0
   -1.7896   -0.6239    0.0000 O   0  0  0  0  0  0  0  0  0  0  0  0
   -2.4924   -0.2194    0.0000 C   0  0  0  0  0  0  0  0  0  0  0  0
    0.3462   -1.8513    0.0000 C   0  0  0  0  0  0  0  0  0  0  0  0
  2  4  1  0  0  0  0
  3  5  1  0  0  0  0
  4  1  1  0  0  0  0
  5  6  1  0  0  0  0
  6  1  1  0  0  0  0
  7  1  2  0  0  0  0
  8  3  2  0  0  0  0
  9 22  1  0  0  0  0
 10  9  3  0  0  0  0
 11  4  2  0  0  0  0
 12 15  1  0  0  0  0
 13  6  2  0  0  0  0
 14  7  1  0  0  0  0
 15 14  2  0  0  0  0
 16 18  1  0  0  0  0
 17  2  1  0  0  0  0
 18 19  2  0  0  0  0
 19 14  1  0  0  0  0
 20 12  1  0  0  0  0
 21 16  1  0  0  0  0
 22 21  1  0  0  0  0
 23 20  1  0  0  0  0
  2  3  1  0  0  0  0
 12 16  2  0  0  0  0
M  END
>  <Mol Weight>
330.358

>  <Click ID>
CLK028_H03

>  <Plant Activity>
0

>  <Yeast Activity>
1

$$$$

  Marvin  06120816592D          

 14 14  0  0  0  0            999 V2000
   -0.0035   -0.8250    0.0000 C   0  0  0  0  0  0  0  0  0  0  0  0
   -0.7116    0.4193    0.0000 C   0  0  0  0  0  0  0  0  0  0  0  0
   -0.0035    0.0000    0.0000 C   0  0  0  0  0  0  0  0  0  0  0  0
   -1.4266    0.0000    0.0000 C   0  0  0  0  0  0  0  0  0  0  0  0
    1.4300    1.6535    0.0000 C   0  0  0  0  0  0  0  0  0  0  0  0
    2.1382    2.0693    0.0000 C   0  0  0  0  0  0  0  0  0  0  0  0
   -0.7116   -1.2340    0.0000 C   0  0  0  0  0  0  0  0  0  0  0  0
   -1.4266   -0.8250    0.0000 C   0  0  0  0  0  0  0  0  0  0  0  0
    0.7150   -1.2340    0.0000 C   0  0  0  0  0  0  0  0  0  0  0  0
    0.7150   -2.0660    0.0000 O   0  0  0  0  0  0  0  0  0  0  0  0
   -0.7116    1.2410    0.0000 Br  0  0  0  0  0  0  0  0  0  0  0  0
    0.7150    0.4193    0.0000 O   0  0  0  0  0  0  0  0  0  0  0  0
   -2.1415   -1.2340    0.0000 Br  0  0  0  0  0  0  0  0  0  0  0  0
    0.7150    1.2410    0.0000 C   0  0  0  0  0  0  0  0  0  0  0  0
  2  3  2  0  0  0  0
  3  1  1  0  0  0  0
  4  8  2  0  0  0  0
  5 14  1  0  0  0  0
  6  5  3  0  0  0  0
  7  1  2  0  0  0  0
  8  7  1  0  0  0  0
  9  1  1  0  0  0  0
 10  9  2  0  0  0  0
 11  2  1  0  0  0  0
 12  3  1  0  0  0  0
 13  8  1  0  0  0  0
 14 12  1  0  0  0  0
  2  4  1  0  0  0  0
M  END
>  <Mol Weight>
317.961

>  <Click ID>
CLK028_G06

>  <Plant Activity>
0

>  <Yeast Activity>
1

$$$$

  Marvin  06120816592D          

 29 31  0  0  0  0            999 V2000
   -2.1805    0.3066    0.0000 C   0  0  0  0  0  0  0  0  0  0  0  0
   -2.1805   -1.1196    0.0000 C   0  0  0  0  0  0  0  0  0  0  0  0
   -1.7740   -0.4065    0.0000 C   0  0  0  0  0  0  0  0  0  0  0  0
   -2.9866    0.4822    0.0000 C   0  0  0  0  0  0  0  0  0  0  0  0
   -2.9866   -1.2953    0.0000 C   0  0  0  0  0  0  0  0  0  0  0  0
   -2.3252    1.6432    0.0000 N   0  0  0  0  0  0  0  0  0  0  0  0
   -2.3252   -2.4561    0.0000 N   0  0  0  0  0  0  0  0  0  0  0  0
   -0.9404   -0.4065    0.0000 C   0  0  0  0  0  0  0  0  0  0  0  0
   -3.0762   -2.1151    0.0000 N   0  0  0  0  0  0  0  0  0  0  0  0
   -3.0762    1.2987    0.0000 N   0  0  0  0  0  0  0  0  0  0  0  0
   -1.7740    1.0231    0.0000 C   0  0  0  0  0  0  0  0  0  0  0  0
   -1.7740   -1.8395    0.0000 C   0  0  0  0  0  0  0  0  0  0  0  0
    0.7131   -0.4065    0.0000 C   0  0  0  0  0  0  0  0  0  0  0  0
    0.2997   -1.1196    0.0000 C   0  0  0  0  0  0  0  0  0  0  0  0
    0.2997    0.3066    0.0000 C   0  0  0  0  0  0  0  0  0  0  0  0
   -0.5305   -1.1196    0.0000 C   0  0  0  0  0  0  0  0  0  0  0  0
   -0.5305    0.3066    0.0000 C   0  0  0  0  0  0  0  0  0  0  0  0
    2.7765   -1.1196    0.0000 C   0  0  0  0  0  0  0  0  0  0  0  0
    3.5998   -1.1196    0.0000 C   0  0  0  0  0  0  0  0  0  0  0  0
   -3.6032   -0.0655    0.0000 O   0  0  0  0  0  0  0  0  0  0  0  0
   -3.6032   -0.7509    0.0000 O   0  0  0  0  0  0  0  0  0  0  0  0
    0.7199   -1.8430    0.0000 Cl  0  0  0  0  0  0  0  0  0  0  0  0
    1.5398   -0.4065    0.0000 O   0  0  0  0  0  0  0  0  0  0  0  0
    0.7199    1.0300    0.0000 O   0  0  0  0  0  0  0  0  0  0  0  0
    1.9497   -1.1196    0.0000 C   0  0  0  0  0  0  0  0  0  0  0  0
   -0.9404    1.1058    0.0000 C   0  0  0  0  0  0  0  0  0  0  0  0
   -0.9404   -1.9187    0.0000 C   0  0  0  0  0  0  0  0  0  0  0  0
    0.3100    1.7465    0.0000 C   0  0  0  0  0  0  0  0  0  0  0  0
    0.7269    2.4596    0.0000 C   0  0  0  0  0  0  0  0  0  0  0  0
  2  3  1  0  0  0  0
  3  1  1  0  0  0  0
  4  1  2  0  0  0  0
  5  2  2  0  0  0  0
  6 11  2  0  0  0  0
  7 12  2  0  0  0  0
  8  3  1  0  0  0  0
  9  5  1  0  0  0  0
 10  4  1  0  0  0  0
 11  1  1  0  0  0  0
 12  2  1  0  0  0  0
 13 15  1  0  0  0  0
 14 16  1  0  0  0  0
 15 17  2  0  0  0  0
 16  8  2  0  0  0  0
 17  8  1  0  0  0  0
 18 25  1  0  0  0  0
 19 18  3  0  0  0  0
 20  4  1  0  0  0  0
 21  5  1  0  0  0  0
 22 14  1  0  0  0  0
 23 13  1  0  0  0  0
 24 15  1  0  0  0  0
 25 23  1  0  0  0  0
 26 11  1  0  0  0  0
 27 12  1  0  0  0  0
 28 24  1  0  0  0  0
 29 28  1  0  0  0  0
  6 10  1  0  0  0  0
 14 13  2  0  0  0  0
  9  7  1  0  0  0  0
M  END
>  <Mol Weight>
416.858

>  <Click ID>
CLK028_D11

>  <Plant Activity>
0

>  <Yeast Activity>
1

$$$$

  Marvin  06120816592D          

 27 29  0  0  0  0            999 V2000
    0.3740   -1.9553    0.0000 C   0  0  0  0  0  0  0  0  0  0  0  0
    0.9091   -0.7341    0.0000 N   0  0  0  0  0  0  0  0  0  0  0  0
    0.1990   -1.1491    0.0000 C   0  0  0  0  0  0  0  0  0  0  0  0
    1.5231   -1.2932    0.0000 N   0  0  0  0  0  0  0  0  0  0  0  0
    1.1938   -2.0342    0.0000 C   0  0  0  0  0  0  0  0  0  0  0  0
   -0.1750   -2.5728    0.0000 C   0  0  0  0  0  0  0  0  0  0  0  0
    1.1217    0.0515    0.0000 C   0  0  0  0  0  0  0  0  0  0  0  0
    1.7941    2.4253    0.0000 C   0  0  0  0  0  0  0  0  0  0  0  0
   -2.0136    0.7169    0.0000 C   0  0  0  0  0  0  0  0  0  0  0  0
   -2.2675    1.5060    0.0000 C   0  0  0  0  0  0  0  0  0  0  0  0
   -0.5694   -0.8095    0.0000 O   0  0  0  0  0  0  0  0  0  0  0  0
    1.5574    1.6295    0.0000 C   0  0  0  0  0  0  0  0  0  0  0  0
   -0.9879   -2.4047    0.0000 C   0  0  0  0  0  0  0  0  0  0  0  0
    1.2315    3.0255    0.0000 O   0  0  0  0  0  0  0  0  0  0  0  0
    1.9107    0.2641    0.0000 C   0  0  0  0  0  0  0  0  0  0  0  0
    0.5455    0.6312    0.0000 C   0  0  0  0  0  0  0  0  0  0  0  0
    0.7547    1.4167    0.0000 C   0  0  0  0  0  0  0  0  0  0  0  0
    2.1234    1.0634    0.0000 C   0  0  0  0  0  0  0  0  0  0  0  0
   -1.2521   -1.6226    0.0000 C   0  0  0  0  0  0  0  0  0  0  0  0
    2.5968    2.6174    0.0000 O   0  0  0  0  0  0  0  0  0  0  0  0
   -2.0514   -1.4614    0.0000 C   0  0  0  0  0  0  0  0  0  0  0  0
    1.6089   -2.7546    0.0000 C   0  0  0  0  0  0  0  0  0  0  0  0
   -1.7632   -0.0618    0.0000 C   0  0  0  0  0  0  0  0  0  0  0  0
   -2.3120   -0.6723    0.0000 O   0  0  0  0  0  0  0  0  0  0  0  0
   -2.3395   -2.8609    0.0000 C   0  0  0  0  0  0  0  0  0  0  0  0
   -1.5299   -3.0221    0.0000 C   0  0  0  0  0  0  0  0  0  0  0  0
   -2.6002   -2.0822    0.0000 C   0  0  0  0  0  0  0  0  0  0  0  0
  2  3  1  0  0  0  0
  3  1  1  0  0  0  0
  4  5  2  0  0  0  0
  5  1  1  0  0  0  0
  6  1  2  0  0  0  0
  7  2  1  0  0  0  0
  8 12  1  0  0  0  0
  9 23  1  0  0  0  0
 10  9  3  0  0  0  0
 11  3  2  0  0  0  0
 12 17  2  0  0  0  0
 13  6  1  0  0  0  0
 14  8  2  0  0  0  0
 15  7  1  0  0  0  0
 16  7  2  0  0  0  0
 17 16  1  0  0  0  0
 18 15  2  0  0  0  0
 19 13  1  0  0  0  0
 20  8  1  0  0  0  0
 21 19  2  0  0  0  0
 22  5  1  0  0  0  0
 23 24  1  0  0  0  0
 24 21  1  0  0  0  0
 25 26  1  0  0  0  0
 26 13  2  0  0  0  0
 27 25  2  0  0  0  0
  2  4  1  0  0  0  0
 21 27  1  0  0  0  0
 18 12  1  0  0  0  0
M  END
>  <Mol Weight>
360.3627

>  <Click ID>
CLK028_D08

>  <Plant Activity>
0

>  <Yeast Activity>
1

$$$$

  Marvin  06120816592D          

 25 26  0  0  0  0            999 V2000
    1.4273    0.4127    0.0000 C   0  0  0  0  0  0  0  0  0  0  0  0
    2.8476    0.4127    0.0000 N   0  0  0  0  0  0  0  0  0  0  0  0
    2.8476   -0.4195    0.0000 C   0  0  0  0  0  0  0  0  0  0  0  0
    2.1357    0.8289    0.0000 C   0  0  0  0  0  0  0  0  0  0  0  0
    2.1357   -0.8254    0.0000 N   0  0  0  0  0  0  0  0  0  0  0  0
    1.4273   -0.4195    0.0000 C   0  0  0  0  0  0  0  0  0  0  0  0
    0.7050    0.8254    0.0000 C   0  0  0  0  0  0  0  0  0  0  0  0
    3.5698   -0.8322    0.0000 S   0  0  0  0  0  0  0  0  0  0  0  0
   -3.5767   -0.8322    0.0000 C   0  0  0  0  0  0  0  0  0  0  0  0
   -4.2885   -1.2449    0.0000 C   0  0  0  0  0  0  0  0  0  0  0  0
    2.1357    1.6611    0.0000 O   0  0  0  0  0  0  0  0  0  0  0  0
   -0.7187   -0.8322    0.0000 C   0  0  0  0  0  0  0  0  0  0  0  0
    0.7050   -0.8322    0.0000 O   0  0  0  0  0  0  0  0  0  0  0  0
   -0.0138    0.4127    0.0000 C   0  0  0  0  0  0  0  0  0  0  0  0
    0.0000   -0.4195    0.0000 C   0  0  0  0  0  0  0  0  0  0  0  0
   -1.4306   -0.4195    0.0000 C   0  0  0  0  0  0  0  0  0  0  0  0
    3.5698    0.8254    0.0000 C   0  0  0  0  0  0  0  0  0  0  0  0
    3.5698    1.6508    0.0000 C   0  0  0  0  0  0  0  0  0  0  0  0
   -1.4306    0.3989    0.0000 C   0  0  0  0  0  0  0  0  0  0  0  0
    4.2852    2.0600    0.0000 C   0  0  0  0  0  0  0  0  0  0  0  0
   -0.7187    0.8116    0.0000 C   0  0  0  0  0  0  0  0  0  0  0  0
   -0.7187   -1.6473    0.0000 O   0  0  0  0  0  0  0  0  0  0  0  0
   -2.1460   -0.8322    0.0000 O   0  0  0  0  0  0  0  0  0  0  0  0
   -2.8544   -0.4195    0.0000 C   0  0  0  0  0  0  0  0  0  0  0  0
   -1.4341   -2.0566    0.0000 C   0  0  0  0  0  0  0  0  0  0  0  0
  2  4  1  0  0  0  0
  3  5  1  0  0  0  0
  4  1  1  0  0  0  0
  5  6  1  0  0  0  0
  6  1  1  0  0  0  0
  7  1  2  0  0  0  0
  8  3  2  0  0  0  0
  9 24  1  0  0  0  0
 10  9  3  0  0  0  0
 11  4  2  0  0  0  0
 12 15  1  0  0  0  0
 13  6  2  0  0  0  0
 14  7  1  0  0  0  0
 15 14  2  0  0  0  0
 16 19  1  0  0  0  0
 17  2  1  0  0  0  0
 18 17  1  0  0  0  0
 19 21  2  0  0  0  0
 20 18  2  0  0  0  0
 21 14  1  0  0  0  0
 22 12  1  0  0  0  0
 23 16  1  0  0  0  0
 24 23  1  0  0  0  0
 25 22  1  0  0  0  0
  3  2  1  0  0  0  0
 16 12  2  0  0  0  0
M  END
>  <Mol Weight>
356.396

>  <Click ID>
CLK028_B04

>  <Plant Activity>
0

>  <Yeast Activity>
1

$$$$

  Marvin  06120816592D          

 26 28  0  0  0  0            999 V2000
    1.0129    0.9881    0.0000 C   0  0  0  0  0  0  0  0  0  0  0  0
    2.4366    0.1700    0.0000 C   0  0  0  0  0  0  0  0  0  0  0  0
    1.7282   -0.2408    0.0000 N   0  0  0  0  0  0  0  0  0  0  0  0
    2.4366    0.9881    0.0000 N   0  0  0  0  0  0  0  0  0  0  0  0
    1.0129    0.1700    0.0000 C   0  0  0  0  0  0  0  0  0  0  0  0
    1.7282    1.4131    0.0000 C   0  0  0  0  0  0  0  0  0  0  0  0
    0.2833    1.4060    0.0000 C   0  0  0  0  0  0  0  0  0  0  0  0
   -1.0164    0.6339    0.0000 C   0  0  0  0  0  0  0  0  0  0  0  0
   -1.7318    1.0448    0.0000 C   0  0  0  0  0  0  0  0  0  0  0  0
    3.1519   -0.2514    0.0000 S   0  0  0  0  0  0  0  0  0  0  0  0
    0.4250   -1.8451    0.0000 C   0  0  0  0  0  0  0  0  0  0  0  0
    1.1545   -2.2701    0.0000 C   0  0  0  0  0  0  0  0  0  0  0  0
    1.7282    2.2382    0.0000 O   0  0  0  0  0  0  0  0  0  0  0  0
    0.3045   -0.2514    0.0000 O   0  0  0  0  0  0  0  0  0  0  0  0
   -1.0164   -0.1912    0.0000 C   0  0  0  0  0  0  0  0  0  0  0  0
   -2.4436    0.6339    0.0000 C   0  0  0  0  0  0  0  0  0  0  0  0
    1.7282   -1.0624    0.0000 C   0  0  0  0  0  0  0  0  0  0  0  0
    3.1519    1.3989    0.0000 C   0  0  0  0  0  0  0  0  0  0  0  0
   -1.7318   -0.6020    0.0000 C   0  0  0  0  0  0  0  0  0  0  0  0
   -2.4436   -0.1912    0.0000 C   0  0  0  0  0  0  0  0  0  0  0  0
   -0.3081   -0.6020    0.0000 O   0  0  0  0  0  0  0  0  0  0  0  0
   -0.3081   -1.4237    0.0000 C   0  0  0  0  0  0  0  0  0  0  0  0
   -1.7318    1.8735    0.0000 C   0  0  0  0  0  0  0  0  0  0  0  0
   -3.1555    1.0341    0.0000 C   0  0  0  0  0  0  0  0  0  0  0  0
   -2.4543    2.2736    0.0000 C   0  0  0  0  0  0  0  0  0  0  0  0
   -3.1555    1.8522    0.0000 C   0  0  0  0  0  0  0  0  0  0  0  0
  2  4  1  0  0  0  0
  3  5  1  0  0  0  0
  4  6  1  0  0  0  0
  5  1  1  0  0  0  0
  6  1  1  0  0  0  0
  7  1  2  0  0  0  0
  8  7  1  0  0  0  0
  9  8  1  0  0  0  0
 10  2  2  0  0  0  0
 11 22  1  0  0  0  0
 12 11  3  0  0  0  0
 13  6  2  0  0  0  0
 14  5  2  0  0  0  0
 15  8  2  0  0  0  0
 16  9  1  0  0  0  0
 17  3  1  0  0  0  0
 18  4  1  0  0  0  0
 19 15  1  0  0  0  0
 20 19  2  0  0  0  0
 21 15  1  0  0  0  0
 22 21  1  0  0  0  0
 23  9  2  0  0  0  0
 24 16  2  0  0  0  0
 25 23  1  0  0  0  0
 26 25  2  0  0  0  0
  2  3  1  0  0  0  0
 16 20  1  0  0  0  0
 24 26  1  0  0  0  0
M  END
>  <Mol Weight>
364.418

>  <Click ID>
CLK028_A04

>  <Plant Activity>
0

>  <Yeast Activity>
1

$$$$

  Marvin  06120816592D          

 20 21  0  0  0  0            999 V2000
    1.4983   -0.2170    0.0000 N   0  0  0  0  0  0  0  0  0  0  0  0
    1.1505    0.5201    0.0000 C   0  0  0  0  0  0  0  0  0  0  0  0
    0.1722   -0.3892    0.0000 C   0  0  0  0  0  0  0  0  0  0  0  0
    0.8955   -0.7888    0.0000 C   0  0  0  0  0  0  0  0  0  0  0  0
    0.3307    0.4202    0.0000 S   0  0  0  0  0  0  0  0  0  0  0  0
   -0.5270   -0.8060    0.0000 C   0  0  0  0  0  0  0  0  0  0  0  0
   -1.2468   -0.4065    0.0000 C   0  0  0  0  0  0  0  0  0  0  0  0
   -1.9565   -0.8267    0.0000 C   0  0  0  0  0  0  0  0  0  0  0  0
   -2.6832   -0.4271    0.0000 C   0  0  0  0  0  0  0  0  0  0  0  0
    2.8554    0.2515    0.0000 C   0  0  0  0  0  0  0  0  0  0  0  0
   -2.6935    0.3961    0.0000 C   0  0  0  0  0  0  0  0  0  0  0  0
    3.3928    0.8749    0.0000 C   0  0  0  0  0  0  0  0  0  0  0  0
    1.5638    1.2400    0.0000 O   0  0  0  0  0  0  0  0  0  0  0  0
   -1.2538    0.4202    0.0000 C   0  0  0  0  0  0  0  0  0  0  0  0
    0.9989   -1.6155    0.0000 O   0  0  0  0  0  0  0  0  0  0  0  0
   -1.9736    0.8232    0.0000 C   0  0  0  0  0  0  0  0  0  0  0  0
    2.3112   -0.3685    0.0000 C   0  0  0  0  0  0  0  0  0  0  0  0
   -3.3962   -0.8439    0.0000 I   0  0  0  0  0  0  0  0  0  0  0  0
   -1.9461   -1.6568    0.0000 O   0  0  0  0  0  0  0  0  0  0  0  0
   -1.9736    1.6602    0.0000 Cl  0  0  0  0  0  0  0  0  0  0  0  0
  2  1  1  0  0  0  0
  3  4  1  0  0  0  0
  4  1  1  0  0  0  0
  5  2  1  0  0  0  0
  6  3  2  0  0  0  0
  7  6  1  0  0  0  0
  8  7  1  0  0  0  0
  9  8  2  0  0  0  0
 10 17  1  0  0  0  0
 11 16  2  0  0  0  0
 12 10  3  0  0  0  0
 13  2  2  0  0  0  0
 14  7  2  0  0  0  0
 15  4  2  0  0  0  0
 16 14  1  0  0  0  0
 17  1  1  0  0  0  0
 18  9  1  0  0  0  0
 19  8  1  0  0  0  0
 20 16  1  0  0  0  0
  5  3  1  0  0  0  0
  9 11  1  0  0  0  0
M  END
>  <Mol Weight>
419.622

>  <Click ID>
CLK027_A08

>  <Plant Activity>
0

>  <Yeast Activity>
1

$$$$

  Marvin  06120816592D          

 19 20  0  0  0  0            999 V2000
   -1.6329   -0.3678    0.0000 N   0  0  0  0  0  0  0  0  0  0  0  0
   -2.0351   -1.0897    0.0000 C   0  0  0  0  0  0  0  0  0  0  0  0
   -0.8216   -0.5294    0.0000 C   0  0  0  0  0  0  0  0  0  0  0  0
   -0.7219   -1.3510    0.0000 C   0  0  0  0  0  0  0  0  0  0  0  0
   -1.4747   -1.6981    0.0000 S   0  0  0  0  0  0  0  0  0  0  0  0
    0.0000   -1.7532    0.0000 C   0  0  0  0  0  0  0  0  0  0  0  0
   -1.5022    1.0587    0.0000 C   0  0  0  0  0  0  0  0  0  0  0  0
   -1.0622    1.7566    0.0000 C   0  0  0  0  0  0  0  0  0  0  0  0
    2.1244   -1.2994    0.0000 C   0  0  0  0  0  0  0  0  0  0  0  0
   -2.8498   -1.1860    0.0000 O   0  0  0  0  0  0  0  0  0  0  0  0
   -0.2234    0.0378    0.0000 O   0  0  0  0  0  0  0  0  0  0  0  0
    0.7013   -1.3235    0.0000 C   0  0  0  0  0  0  0  0  0  0  0  0
   -1.9766    0.3747    0.0000 C   0  0  0  0  0  0  0  0  0  0  0  0
    2.1141   -0.4779    0.0000 C   0  0  0  0  0  0  0  0  0  0  0  0
    1.4232   -1.7291    0.0000 C   0  0  0  0  0  0  0  0  0  0  0  0
    1.3888   -0.0790    0.0000 C   0  0  0  0  0  0  0  0  0  0  0  0
    2.8463   -1.7051    0.0000 Cl  0  0  0  0  0  0  0  0  0  0  0  0
    0.6910   -0.5053    0.0000 C   0  0  0  0  0  0  0  0  0  0  0  0
    2.8257   -0.0516    0.0000 O   0  0  0  0  0  0  0  0  0  0  0  0
  2  1  1  0  0  0  0
  3  1  1  0  0  0  0
  4  3  1  0  0  0  0
  5  2  1  0  0  0  0
  6  4  2  0  0  0  0
  7 13  1  0  0  0  0
  8  7  3  0  0  0  0
  9 15  1  0  0  0  0
 10  2  2  0  0  0  0
 11  3  2  0  0  0  0
 12  6  1  0  0  0  0
 13  1  1  0  0  0  0
 14 16  1  0  0  0  0
 15 12  2  0  0  0  0
 16 18  2  0  0  0  0
 17  9  1  0  0  0  0
 18 12  1  0  0  0  0
 19 14  1  0  0  0  0
  5  4  1  0  0  0  0
 14  9  2  0  0  0  0
M  END
>  <Mol Weight>
293.726

>  <Click ID>
CLK026_E07

>  <Plant Activity>
0

>  <Yeast Activity>
1

$$$$

  Marvin  06120816592D          

 27 29  0  0  0  0            999 V2000
    2.4858    0.4120    0.0000 N   0  0  0  0  0  0  0  0  0  0  0  0
    3.2033    0.8205    0.0000 C   0  0  0  0  0  0  0  0  0  0  0  0
    1.7751    1.6515    0.0000 C   0  0  0  0  0  0  0  0  0  0  0  0
    1.7751    0.8205    0.0000 C   0  0  0  0  0  0  0  0  0  0  0  0
    3.2033    1.6515    0.0000 N   0  0  0  0  0  0  0  0  0  0  0  0
    2.4858    2.0704    0.0000 C   0  0  0  0  0  0  0  0  0  0  0  0
    1.0540    2.0635    0.0000 C   0  0  0  0  0  0  0  0  0  0  0  0
    2.4858   -0.4155    0.0000 C   0  0  0  0  0  0  0  0  0  0  0  0
    3.9208    0.4086    0.0000 S   0  0  0  0  0  0  0  0  0  0  0  0
   -3.2102    0.4567    0.0000 C   0  0  0  0  0  0  0  0  0  0  0  0
   -3.9243    0.0550    0.0000 C   0  0  0  0  0  0  0  0  0  0  0  0
    1.0540    0.4086    0.0000 O   0  0  0  0  0  0  0  0  0  0  0  0
    2.4858    2.8978    0.0000 O   0  0  0  0  0  0  0  0  0  0  0  0
    0.3434    1.6549    0.0000 C   0  0  0  0  0  0  0  0  0  0  0  0
    1.7613   -0.8240    0.0000 C   0  0  0  0  0  0  0  0  0  0  0  0
    3.2033   -0.8240    0.0000 C   0  0  0  0  0  0  0  0  0  0  0  0
    2.4788   -2.0669    0.0000 C   0  0  0  0  0  0  0  0  0  0  0  0
   -1.0746    0.8377    0.0000 C   0  0  0  0  0  0  0  0  0  0  0  0
    3.1930   -1.6515    0.0000 C   0  0  0  0  0  0  0  0  0  0  0  0
    1.7613   -1.6515    0.0000 C   0  0  0  0  0  0  0  0  0  0  0  0
    2.4651   -2.8943    0.0000 F   0  0  0  0  0  0  0  0  0  0  0  0
   -0.3605    2.0635    0.0000 C   0  0  0  0  0  0  0  0  0  0  0  0
    0.3399    0.8343    0.0000 C   0  0  0  0  0  0  0  0  0  0  0  0
   -0.3708    0.4326    0.0000 C   0  0  0  0  0  0  0  0  0  0  0  0
   -1.0780    1.6618    0.0000 C   0  0  0  0  0  0  0  0  0  0  0  0
   -2.4994    0.8514    0.0000 C   0  0  0  0  0  0  0  0  0  0  0  0
   -1.7922    0.4464    0.0000 O   0  0  0  0  0  0  0  0  0  0  0  0
  2  1  1  0  0  0  0
  3  4  1  0  0  0  0
  4  1  1  0  0  0  0
  5  2  1  0  0  0  0
  6  3  1  0  0  0  0
  7  3  2  0  0  0  0
  8  1  1  0  0  0  0
  9  2  2  0  0  0  0
 10 26  1  0  0  0  0
 11 10  3  0  0  0  0
 12  4  2  0  0  0  0
 13  6  2  0  0  0  0
 14  7  1  0  0  0  0
 15  8  2  0  0  0  0
 16  8  1  0  0  0  0
 17 19  1  0  0  0  0
 18 24  2  0  0  0  0
 19 16  2  0  0  0  0
 20 15  1  0  0  0  0
 21 17  1  0  0  0  0
 22 14  1  0  0  0  0
 23 14  2  0  0  0  0
 24 23  1  0  0  0  0
 25 22  2  0  0  0  0
 26 27  1  0  0  0  0
 27 18  1  0  0  0  0
 20 17  2  0  0  0  0
  5  6  1  0  0  0  0
 25 18  1  0  0  0  0
M  END
>  <Mol Weight>
380.392

>  <Click ID>
CLK026_B08

>  <Plant Activity>
0

>  <Yeast Activity>
1

>  <Yeast Comment>
second antifungal hit with this five membered di-amide-tricarbonyl structure. See CLK023_B05

$$$$

  Marvin  06120816592D          

 19 20  0  0  0  0            999 V2000
   -2.4818   -1.4850    0.0000 C   0  0  0  0  0  0  0  0  0  0  0  0
   -0.3438    0.6187    0.0000 C   0  0  0  0  0  0  0  0  0  0  0  0
   -2.4818   -2.3100    0.0000 C   0  0  0  0  0  0  0  0  0  0  0  0
    0.3541    1.0519    0.0000 C   0  0  0  0  0  0  0  0  0  0  0  0
   -1.0690    1.0244    0.0000 N   0  0  0  0  0  0  0  0  0  0  0  0
    1.0657    0.6497    0.0000 C   0  0  0  0  0  0  0  0  0  0  0  0
   -1.7806    0.6016    0.0000 C   0  0  0  0  0  0  0  0  0  0  0  0
   -0.3438   -0.1994    0.0000 O   0  0  0  0  0  0  0  0  0  0  0  0
   -2.4818   -0.6565    0.0000 C   0  0  0  0  0  0  0  0  0  0  0  0
   -1.7703   -0.2234    0.0000 C   0  0  0  0  0  0  0  0  0  0  0  0
    1.7737    1.0760    0.0000 C   0  0  0  0  0  0  0  0  0  0  0  0
   -3.2175    0.5775    0.0000 C   0  0  0  0  0  0  0  0  0  0  0  0
   -2.5197    1.0038    0.0000 C   0  0  0  0  0  0  0  0  0  0  0  0
   -3.1934   -0.2475    0.0000 C   0  0  0  0  0  0  0  0  0  0  0  0
    2.4991    0.6635    0.0000 C   0  0  0  0  0  0  0  0  0  0  0  0
    1.7772    1.8907    0.0000 C   0  0  0  0  0  0  0  0  0  0  0  0
    3.2140    1.0897    0.0000 C   0  0  0  0  0  0  0  0  0  0  0  0
    2.4853    2.3135    0.0000 C   0  0  0  0  0  0  0  0  0  0  0  0
    3.1969    1.9043    0.0000 C   0  0  0  0  0  0  0  0  0  0  0  0
  2  5  1  0  0  0  0
  3  1  3  0  0  0  0
  4  2  1  0  0  0  0
  5  7  1  0  0  0  0
  6  4  2  0  0  0  0
  7 10  2  0  0  0  0
  8  2  2  0  0  0  0
  9  1  1  0  0  0  0
 10  9  1  0  0  0  0
 11  6  1  0  0  0  0
 12 14  1  0  0  0  0
 13 12  2  0  0  0  0
 14  9  2  0  0  0  0
 15 11  2  0  0  0  0
 16 11  1  0  0  0  0
 17 15  1  0  0  0  0
 18 16  2  0  0  0  0
 19 18  1  0  0  0  0
 13  7  1  0  0  0  0
 17 19  2  0  0  0  0
M  END
>  <Mol Weight>
247.2912

>  <Click ID>
CLK025_G04

>  <Plant Activity>
1

>  <Yeast Activity>
1

>  <Bioactivity Commet>
yeast-plant overlap

>  <Plant Comment>
auxin-like

$$$$

  Marvin  06120816592D          

 30 32  0  0  0  0            999 V2000
   -3.4644    1.2875    0.0000 N   0  0  0  0  0  0  0  0  0  0  0  0
   -3.0283    0.5871    0.0000 C   0  0  0  0  0  0  0  0  0  0  0  0
   -2.9321    1.9090    0.0000 C   0  0  0  0  0  0  0  0  0  0  0  0
   -2.1699    1.5965    0.0000 C   0  0  0  0  0  0  0  0  0  0  0  0
   -2.2317    0.7725    0.0000 S   0  0  0  0  0  0  0  0  0  0  0  0
    4.3193   -1.9914    0.0000 N   0  3  0  0  0  0  0  0  0  0  0  0
    0.6970    0.8378    0.0000 C   0  0  0  0  0  0  0  0  0  0  0  0
   -1.4626    2.0223    0.0000 C   0  0  0  0  0  0  0  0  0  0  0  0
    0.0000    0.4017    0.0000 C   0  0  0  0  0  0  0  0  0  0  0  0
    0.6833    1.6515    0.0000 C   0  0  0  0  0  0  0  0  0  0  0  0
   -0.7485    1.6343    0.0000 C   0  0  0  0  0  0  0  0  0  0  0  0
    1.4180    0.4292    0.0000 O   0  0  0  0  0  0  0  0  0  0  0  0
   -4.6351    2.0944    0.0000 C   0  0  0  0  0  0  0  0  0  0  0  0
    3.5983   -1.5931    0.0000 C   0  0  0  0  0  0  0  0  0  0  0  0
   -5.0300    2.8188    0.0000 C   0  0  0  0  0  0  0  0  0  0  0  0
    4.3330   -2.8154    0.0000 O   0  5  0  0  0  0  0  0  0  0  0  0
   -3.3544   -0.1819    0.0000 O   0  0  0  0  0  0  0  0  0  0  0  0
   -0.0377    2.0566    0.0000 C   0  0  0  0  0  0  0  0  0  0  0  0
   -0.7245    0.8034    0.0000 C   0  0  0  0  0  0  0  0  0  0  0  0
    5.0300   -1.5691    0.0000 O   0  0  0  0  0  0  0  0  0  0  0  0
   -3.1244    2.7055    0.0000 O   0  0  0  0  0  0  0  0  0  0  0  0
   -4.2884    1.3459    0.0000 C   0  0  0  0  0  0  0  0  0  0  0  0
    2.8875   -2.0120    0.0000 C   0  0  0  0  0  0  0  0  0  0  0  0
    3.5845   -0.7657    0.0000 C   0  0  0  0  0  0  0  0  0  0  0  0
    0.0206   -0.4189    0.0000 I   0  0  0  0  0  0  0  0  0  0  0  0
    1.3940    2.0738    0.0000 I   0  0  0  0  0  0  0  0  0  0  0  0
    1.4420   -0.3982    0.0000 C   0  0  0  0  0  0  0  0  0  0  0  0
    2.1631   -0.7931    0.0000 C   0  0  0  0  0  0  0  0  0  0  0  0
    2.8635   -0.3605    0.0000 C   0  0  0  0  0  0  0  0  0  0  0  0
    2.1734   -1.6171    0.0000 C   0  0  0  0  0  0  0  0  0  0  0  0
  2  1  1  0  0  0  0
  3  1  1  0  0  0  0
  4  3  1  0  0  0  0
  5  2  1  0  0  0  0
  6 14  1  0  0  0  0
  7  9  1  0  0  0  0
  8  4  2  0  0  0  0
  9 19  2  0  0  0  0
 10 18  1  0  0  0  0
 11  8  1  0  0  0  0
 12  7  1  0  0  0  0
 13 22  1  0  0  0  0
 14 23  2  0  0  0  0
 15 13  3  0  0  0  0
 16  6  1  0  0  0  0
 17  2  2  0  0  0  0
 18 11  2  0  0  0  0
 19 11  1  0  0  0  0
 20  6  2  0  0  0  0
 21  3  2  0  0  0  0
 22  1  1  0  0  0  0
 23 30  1  0  0  0  0
 24 29  2  0  0  0  0
 25  9  1  0  0  0  0
 26 10  1  0  0  0  0
 27 12  1  0  0  0  0
 28 27  1  0  0  0  0
 29 28  1  0  0  0  0
 30 28  2  0  0  0  0
  5  4  1  0  0  0  0
 10  7  2  0  0  0  0
 24 14  1  0  0  0  0
M  CHG  2   6   1  16  -1
M  END
>  <Mol Weight>
646.194

>  <Click ID>
CLK024_B04

>  <Plant Activity>
0

>  <Yeast Activity>
1

$$$$

  Marvin  06120816592D          

 19 20  0  0  0  0            999 V2000
    1.2366    0.1168    0.0000 N   0  0  0  0  0  0  0  0  0  0  0  0
    0.8244   -0.5909    0.0000 C   0  0  0  0  0  0  0  0  0  0  0  0
   -0.0687    0.4122    0.0000 C   0  0  0  0  0  0  0  0  0  0  0  0
    0.6905    0.7352    0.0000 C   0  0  0  0  0  0  0  0  0  0  0  0
    0.0206   -0.4088    0.0000 S   0  0  0  0  0  0  0  0  0  0  0  0
   -0.7797    0.8209    0.0000 C   0  0  0  0  0  0  0  0  0  0  0  0
   -1.4977    0.4019    0.0000 C   0  0  0  0  0  0  0  0  0  0  0  0
    2.5350   -0.4569    0.0000 C   0  0  0  0  0  0  0  0  0  0  0  0
    2.9370   -1.1713    0.0000 C   0  0  0  0  0  0  0  0  0  0  0  0
    1.1473   -1.3465    0.0000 O   0  0  0  0  0  0  0  0  0  0  0  0
    0.8621    1.5389    0.0000 O   0  0  0  0  0  0  0  0  0  0  0  0
   -2.2156    0.8244    0.0000 C   0  0  0  0  0  0  0  0  0  0  0  0
    2.0542    0.2061    0.0000 C   0  0  0  0  0  0  0  0  0  0  0  0
   -1.5080   -0.4157    0.0000 C   0  0  0  0  0  0  0  0  0  0  0  0
   -2.9335    0.4157    0.0000 C   0  0  0  0  0  0  0  0  0  0  0  0
   -2.2156   -0.8244    0.0000 C   0  0  0  0  0  0  0  0  0  0  0  0
   -2.9370   -0.4191    0.0000 C   0  0  0  0  0  0  0  0  0  0  0  0
   -2.2260   -1.6488    0.0000 Cl  0  0  0  0  0  0  0  0  0  0  0  0
   -2.2156    1.6523    0.0000 O   0  0  0  0  0  0  0  0  0  0  0  0
  2  1  1  0  0  0  0
  3  4  1  0  0  0  0
  4  1  1  0  0  0  0
  5  2  1  0  0  0  0
  6  3  2  0  0  0  0
  7  6  1  0  0  0  0
  8 13  1  0  0  0  0
  9  8  3  0  0  0  0
 10  2  2  0  0  0  0
 11  4  2  0  0  0  0
 12  7  2  0  0  0  0
 13  1  1  0  0  0  0
 14  7  1  0  0  0  0
 15 12  1  0  0  0  0
 16 14  2  0  0  0  0
 17 16  1  0  0  0  0
 18 16  1  0  0  0  0
 19 12  1  0  0  0  0
  5  3  1  0  0  0  0
 15 17  2  0  0  0  0
M  END
>  <Mol Weight>
293.726

>  <Click ID>
CLK023_E10

>  <Plant Activity>
0

>  <Yeast Activity>
1

$$$$

  Marvin  06120816592D          

 20 21  0  0  0  0            999 V2000
    0.5294    1.5228    0.0000 N   0  0  0  0  0  0  0  0  0  0  0  0
    0.9384    0.8112    0.0000 C   0  0  0  0  0  0  0  0  0  0  0  0
   -0.3816    0.5294    0.0000 C   0  0  0  0  0  0  0  0  0  0  0  0
   -0.2819    1.3509    0.0000 C   0  0  0  0  0  0  0  0  0  0  0  0
    0.3816    0.1925    0.0000 S   0  0  0  0  0  0  0  0  0  0  0  0
   -1.0931    0.1169    0.0000 C   0  0  0  0  0  0  0  0  0  0  0  0
   -1.0931   -0.6978    0.0000 C   0  0  0  0  0  0  0  0  0  0  0  0
   -1.8047   -1.1103    0.0000 C   0  0  0  0  0  0  0  0  0  0  0  0
   -1.8047   -1.9353    0.0000 C   0  0  0  0  0  0  0  0  0  0  0  0
    1.6878    2.3581    0.0000 C   0  0  0  0  0  0  0  0  0  0  0  0
   -1.0931   -2.3547    0.0000 C   0  0  0  0  0  0  0  0  0  0  0  0
    2.5128    2.3512    0.0000 C   0  0  0  0  0  0  0  0  0  0  0  0
    1.7634    0.7116    0.0000 O   0  0  0  0  0  0  0  0  0  0  0  0
   -0.3816   -1.1103    0.0000 C   0  0  0  0  0  0  0  0  0  0  0  0
   -0.8972    1.9078    0.0000 O   0  0  0  0  0  0  0  0  0  0  0  0
   -0.3816   -1.9353    0.0000 C   0  0  0  0  0  0  0  0  0  0  0  0
    0.8697    2.2756    0.0000 C   0  0  0  0  0  0  0  0  0  0  0  0
   -2.5163   -2.3478    0.0000 I   0  0  0  0  0  0  0  0  0  0  0  0
   -2.5163   -0.7116    0.0000 O   0  0  0  0  0  0  0  0  0  0  0  0
    0.3300   -2.3547    0.0000 Br  0  0  0  0  0  0  0  0  0  0  0  0
  2  1  1  0  0  0  0
  3  4  1  0  0  0  0
  4  1  1  0  0  0  0
  5  2  1  0  0  0  0
  6  3  2  0  0  0  0
  7  6  1  0  0  0  0
  8  7  2  0  0  0  0
  9  8  1  0  0  0  0
 10 17  1  0  0  0  0
 11 16  1  0  0  0  0
 12 10  3  0  0  0  0
 13  2  2  0  0  0  0
 14  7  1  0  0  0  0
 15  4  2  0  0  0  0
 16 14  2  0  0  0  0
 17  1  1  0  0  0  0
 18  9  1  0  0  0  0
 19  8  1  0  0  0  0
 20 16  1  0  0  0  0
  5  3  1  0  0  0  0
  9 11  2  0  0  0  0
M  END
>  <Mol Weight>
464.073

>  <Click ID>
CLK023_C10

>  <Plant Activity>
0

>  <Yeast Activity>
1

$$$$

  Marvin  06120816592D          

 30 32  0  0  0  0            999 V2000
    2.1303    0.4151    0.0000 N   0  0  0  0  0  0  0  0  0  0  0  0
    0.7101    0.4151    0.0000 C   0  0  0  0  0  0  0  0  0  0  0  0
    1.4202    0.8336    0.0000 C   0  0  0  0  0  0  0  0  0  0  0  0
    2.1303   -0.4117    0.0000 C   0  0  0  0  0  0  0  0  0  0  0  0
    1.4202   -0.8199    0.0000 N   0  0  0  0  0  0  0  0  0  0  0  0
    0.7101   -0.4117    0.0000 C   0  0  0  0  0  0  0  0  0  0  0  0
   -0.0068    0.8233    0.0000 C   0  0  0  0  0  0  0  0  0  0  0  0
   -2.1371   -0.4219    0.0000 C   0  0  0  0  0  0  0  0  0  0  0  0
   -2.1441    0.3979    0.0000 C   0  0  0  0  0  0  0  0  0  0  0  0
   -1.4270   -0.8336    0.0000 C   0  0  0  0  0  0  0  0  0  0  0  0
    2.8404    0.8199    0.0000 C   0  0  0  0  0  0  0  0  0  0  0  0
   -0.7204    0.4117    0.0000 C   0  0  0  0  0  0  0  0  0  0  0  0
   -4.2847   -0.8301    0.0000 C   0  0  0  0  0  0  0  0  0  0  0  0
    2.8404   -0.8199    0.0000 O   0  0  0  0  0  0  0  0  0  0  0  0
   -5.0016   -1.2384    0.0000 C   0  0  0  0  0  0  0  0  0  0  0  0
    1.4202    1.6535    0.0000 O   0  0  0  0  0  0  0  0  0  0  0  0
   -1.4270    0.8130    0.0000 C   0  0  0  0  0  0  0  0  0  0  0  0
   -0.7136   -0.4219    0.0000 C   0  0  0  0  0  0  0  0  0  0  0  0
   -0.0068   -0.8199    0.0000 O   0  0  0  0  0  0  0  0  0  0  0  0
    2.8404    1.6466    0.0000 C   0  0  0  0  0  0  0  0  0  0  0  0
    3.5574    0.4117    0.0000 C   0  0  0  0  0  0  0  0  0  0  0  0
   -2.8542    0.8096    0.0000 I   0  0  0  0  0  0  0  0  0  0  0  0
   -2.8542   -0.8336    0.0000 O   0  0  0  0  0  0  0  0  0  0  0  0
    4.2812    1.6398    0.0000 C   0  0  0  0  0  0  0  0  0  0  0  0
   -1.4270   -1.6501    0.0000 O   0  0  0  0  0  0  0  0  0  0  0  0
    4.2709    0.8130    0.0000 C   0  0  0  0  0  0  0  0  0  0  0  0
    3.5643    2.0548    0.0000 C   0  0  0  0  0  0  0  0  0  0  0  0
    5.0016    2.0445    0.0000 Cl  0  0  0  0  0  0  0  0  0  0  0  0
   -3.5676   -0.4185    0.0000 C   0  0  0  0  0  0  0  0  0  0  0  0
   -0.7272   -2.0514    0.0000 C   0  0  0  0  0  0  0  0  0  0  0  0
  2  3  1  0  0  0  0
  3  1  1  0  0  0  0
  4  1  1  0  0  0  0
  5  4  1  0  0  0  0
  6  5  1  0  0  0  0
  7  2  2  0  0  0  0
  8 10  2  0  0  0  0
  9 17  2  0  0  0  0
 10 18  1  0  0  0  0
 11  1  1  0  0  0  0
 12  7  1  0  0  0  0
 13 29  1  0  0  0  0
 14  4  2  0  0  0  0
 15 13  3  0  0  0  0
 16  3  2  0  0  0  0
 17 12  1  0  0  0  0
 18 12  2  0  0  0  0
 19  6  2  0  0  0  0
 20 11  1  0  0  0  0
 21 11  2  0  0  0  0
 22  9  1  0  0  0  0
 23  8  1  0  0  0  0
 24 26  2  0  0  0  0
 25 10  1  0  0  0  0
 26 21  1  0  0  0  0
 27 20  2  0  0  0  0
 28 24  1  0  0  0  0
 29 23  1  0  0  0  0
 30 25  1  0  0  0  0
 27 24  1  0  0  0  0
  2  6  1  0  0  0  0
  9  8  1  0  0  0  0
M  END
>  <Mol Weight>
536.704

>  <Click ID>
CLK023_B05

>  <Plant Activity>
0

>  <Yeast Activity>
1

$$$$

  Marvin  06120816592D          

 21 22  0  0  0  0            999 V2000
    3.9715    1.4704    0.0000 C   0  0  0  0  0  0  0  0  0  0  0  0
    3.2569    1.8827    0.0000 N   0  0  0  0  0  0  0  0  0  0  0  0
    8.2500    3.1195    0.0000 C   0  0  0  0  0  0  0  0  0  0  0  0
    8.9646    3.5318    0.0000 C   0  0  0  0  0  0  0  0  0  0  0  0
    1.8277    1.8827    0.0000 C   0  0  0  0  0  0  0  0  0  0  0  0
    4.6861    1.8827    0.0000 C   0  0  0  0  0  0  0  0  0  0  0  0
    2.5423    1.4704    0.0000 C   0  0  0  0  0  0  0  0  0  0  0  0
    3.9715    0.6459    0.0000 O   0  0  0  0  0  0  0  0  0  0  0  0
    1.8277    2.7072    0.0000 C   0  0  0  0  0  0  0  0  0  0  0  0
    5.4008    1.4704    0.0000 C   0  0  0  0  0  0  0  0  0  0  0  0
    4.6861    2.7072    0.0000 C   0  0  0  0  0  0  0  0  0  0  0  0
    2.5423    3.1195    0.0000 Cl  0  0  0  0  0  0  0  0  0  0  0  0
    6.1154    2.7072    0.0000 C   0  0  0  0  0  0  0  0  0  0  0  0
    5.4008    3.1195    0.0000 C   0  0  0  0  0  0  0  0  0  0  0  0
    6.1154    1.8827    0.0000 C   0  0  0  0  0  0  0  0  0  0  0  0
    7.5354    2.7072    0.0000 C   0  0  0  0  0  0  0  0  0  0  0  0
    6.8300    3.1195    0.0000 O   0  0  0  0  0  0  0  0  0  0  0  0
    1.1131    1.4704    0.0000 C   0  0  0  0  0  0  0  0  0  0  0  0
    1.1131    3.1195    0.0000 C   0  0  0  0  0  0  0  0  0  0  0  0
    0.4031    1.8827    0.0000 C   0  0  0  0  0  0  0  0  0  0  0  0
    0.4031    2.7072    0.0000 C   0  0  0  0  0  0  0  0  0  0  0  0
  2  1  1  0  0  0  0
  3 16  1  0  0  0  0
  4  3  3  0  0  0  0
  5  7  1  0  0  0  0
  6  1  1  0  0  0  0
  7  2  1  0  0  0  0
  8  1  2  0  0  0  0
  9  5  1  0  0  0  0
 10  6  1  0  0  0  0
 11  6  2  0  0  0  0
 12  9  1  0  0  0  0
 13 14  2  0  0  0  0
 14 11  1  0  0  0  0
 15 10  2  0  0  0  0
 16 17  1  0  0  0  0
 17 13  1  0  0  0  0
 18  5  2  0  0  0  0
 19  9  2  0  0  0  0
 20 18  1  0  0  0  0
 21 20  2  0  0  0  0
 13 15  1  0  0  0  0
 19 21  1  0  0  0  0
M  END
>  <Mol Weight>
299.752

>  <Click ID>
CLK022_B05

>  <Plant Activity>
0

>  <Yeast Activity>
1

>  <Bioactivity Commet>
we may have a SAR for a target

$$$$

  Marvin  06120816592D          

 20 21  0  0  0  0            999 V2000
    5.5794    1.1406    0.0000 C   0  0  0  0  0  0  0  0  0  0  0  0
    1.2964    2.7897    0.0000 C   0  0  0  0  0  0  0  0  0  0  0  0
    0.5818    3.2020    0.0000 C   0  0  0  0  0  0  0  0  0  0  0  0
    6.2940    1.5529    0.0000 N   0  0  0  0  0  0  0  0  0  0  0  0
    4.8648    1.5529    0.0000 C   0  0  0  0  0  0  0  0  0  0  0  0
    8.4378    1.1406    0.0000 N   0  0  0  0  0  0  0  0  0  0  0  0
    5.5794    0.3161    0.0000 O   0  0  0  0  0  0  0  0  0  0  0  0
    4.8648    2.3774    0.0000 C   0  0  0  0  0  0  0  0  0  0  0  0
    4.1502    1.1406    0.0000 C   0  0  0  0  0  0  0  0  0  0  0  0
    7.0086    1.1406    0.0000 C   0  0  0  0  0  0  0  0  0  0  0  0
    7.7232    1.5529    0.0000 C   0  0  0  0  0  0  0  0  0  0  0  0
    3.4356    2.3774    0.0000 C   0  0  0  0  0  0  0  0  0  0  0  0
    4.1502    2.7897    0.0000 C   0  0  0  0  0  0  0  0  0  0  0  0
    3.4356    1.5529    0.0000 C   0  0  0  0  0  0  0  0  0  0  0  0
    2.0110    2.3774    0.0000 C   0  0  0  0  0  0  0  0  0  0  0  0
    2.7210    2.7897    0.0000 O   0  0  0  0  0  0  0  0  0  0  0  0
    9.1433    1.5529    0.0000 C   0  0  0  0  0  0  0  0  0  0  0  0
    7.7232    2.3774    0.0000 C   0  0  0  0  0  0  0  0  0  0  0  0
    9.1433    2.3774    0.0000 C   0  0  0  0  0  0  0  0  0  0  0  0
    8.4378    2.7897    0.0000 C   0  0  0  0  0  0  0  0  0  0  0  0
  2 15  1  0  0  0  0
  3  2  3  0  0  0  0
  4  1  1  0  0  0  0
  5  1  1  0  0  0  0
  6 11  1  0  0  0  0
  7  1  2  0  0  0  0
  8  5  1  0  0  0  0
  9  5  2  0  0  0  0
 10  4  1  0  0  0  0
 11 10  1  0  0  0  0
 12 14  2  0  0  0  0
 13  8  2  0  0  0  0
 14  9  1  0  0  0  0
 15 16  1  0  0  0  0
 16 12  1  0  0  0  0
 17  6  2  0  0  0  0
 18 11  2  0  0  0  0
 19 20  2  0  0  0  0
 20 18  1  0  0  0  0
 13 12  1  0  0  0  0
 19 17  1  0  0  0  0
M  END
>  <Mol Weight>
266.2946

>  <Click ID>
CLK022_B04

>  <Plant Activity>
0

>  <Yeast Activity>
1

>  <Bioactivity Commet>
we may have a SAR for a target

$$$$

  Marvin  06120816592D          

 18 18  0  0  0  0            999 V2000
    3.7288    1.9193    0.0000 C   0  0  0  0  0  0  0  0  0  0  0  0
    1.7178    1.3421    0.0000 C   0  0  0  0  0  0  0  0  0  0  0  0
    3.0142    1.5070    0.0000 N   0  0  0  0  0  0  0  0  0  0  0  0
    4.4434    1.5070    0.0000 N   0  0  0  0  0  0  0  0  0  0  0  0
    1.1315    0.7512    0.0000 C   0  0  0  0  0  0  0  0  0  0  0  0
    2.2996    1.9193    0.0000 C   0  0  0  0  0  0  0  0  0  0  0  0
    3.7288    2.7439    0.0000 O   0  0  0  0  0  0  0  0  0  0  0  0
    5.1580    1.9193    0.0000 C   0  0  0  0  0  0  0  0  0  0  0  0
    5.8726    1.5070    0.0000 C   0  0  0  0  0  0  0  0  0  0  0  0
    6.5872    1.9193    0.0000 C   0  0  0  0  0  0  0  0  0  0  0  0
    5.8726    3.1561    0.0000 C   0  0  0  0  0  0  0  0  0  0  0  0
    5.1580    2.7439    0.0000 C   0  0  0  0  0  0  0  0  0  0  0  0
    2.7760    2.5927    0.0000 C   0  0  0  0  0  0  0  0  0  0  0  0
    1.6674    2.4553    0.0000 C   0  0  0  0  0  0  0  0  0  0  0  0
    6.5872    2.7439    0.0000 C   0  0  0  0  0  0  0  0  0  0  0  0
    7.3018    1.5070    0.0000 C   0  0  0  0  0  0  0  0  0  0  0  0
    1.8140    3.2661    0.0000 C   0  0  0  0  0  0  0  0  0  0  0  0
    2.4233    3.3485    0.0000 C   0  0  0  0  0  0  0  0  0  0  0  0
  2  6  1  0  0  0  0
  3  1  1  0  0  0  0
  4  1  1  0  0  0  0
  5  2  3  0  0  0  0
  6  3  1  0  0  0  0
  7  1  2  0  0  0  0
  8  4  1  0  0  0  0
  9  8  2  0  0  0  0
 10  9  1  0  0  0  0
 11 12  2  0  0  0  0
 12  8  1  0  0  0  0
 13  6  1  0  0  0  0
 14  6  1  0  0  0  0
 15 11  1  0  0  0  0
 16 10  1  0  0  0  0
 17 14  1  0  0  0  0
 18 13  1  0  0  0  0
 15 10  2  0  0  0  0
M  END
>  <Mol Weight>
244.3321

>  <Click ID>
CLK022_B03

>  <Plant Activity>
0

>  <Yeast Activity>
1

>  <Bioactivity Commet>
we may have a SAR for a target

$$$$

  Marvin  06120816592D          

 15 15  0  0  0  0            999 V2000
    3.9096    2.0166    0.0000 C   0  0  0  0  0  0  0  0  0  0  0  0
    4.3221    1.3016    0.0000 C   0  0  0  0  0  0  0  0  0  0  0  0
    4.3221    2.7316    0.0000 C   0  0  0  0  0  0  0  0  0  0  0  0
    7.2096    2.0166    0.0000 N   0  0  0  0  0  0  0  0  0  0  0  0
    1.8471    2.7316    0.0000 C   0  0  0  0  0  0  0  0  0  0  0  0
    6.3846    2.0166    0.0000 C   0  0  0  0  0  0  0  0  0  0  0  0
    1.0221    2.7316    0.0000 C   0  0  0  0  0  0  0  0  0  0  0  0
    5.5596    2.0166    0.0000 C   0  0  0  0  0  0  0  0  0  0  0  0
    5.1471    1.3016    0.0000 C   0  0  0  0  0  0  0  0  0  0  0  0
    5.1471    2.7316    0.0000 C   0  0  0  0  0  0  0  0  0  0  0  0
    3.9096    0.5866    0.0000 I   0  0  0  0  0  0  0  0  0  0  0  0
    3.0846    2.0166    0.0000 O   0  0  0  0  0  0  0  0  0  0  0  0
    3.9096    3.4466    0.0000 O   0  0  0  0  0  0  0  0  0  0  0  0
    2.6721    2.7316    0.0000 C   0  0  0  0  0  0  0  0  0  0  0  0
    4.3221    4.1616    0.0000 C   0  0  0  0  0  0  0  0  0  0  0  0
  2  1  2  0  0  0  0
  3  1  1  0  0  0  0
  4  6  3  0  0  0  0
  5 14  1  0  0  0  0
  6  8  1  0  0  0  0
  7  5  3  0  0  0  0
  8 10  1  0  0  0  0
  9  2  1  0  0  0  0
 10  3  2  0  0  0  0
 11  2  1  0  0  0  0
 12  1  1  0  0  0  0
 13  3  1  0  0  0  0
 14 12  1  0  0  0  0
 15 13  1  0  0  0  0
  9  8  2  0  0  0  0
M  END
>  <Mol Weight>
313.0912

>  <Click ID>
CLK021_C07

>  <Plant Activity>
0

>  <Yeast Activity>
1

$$$$

  Marvin  06120816592D          

 18 18  0  0  0  0            999 V2000
    6.9949    2.5652    0.0000 N   0  3  0  0  0  0  0  0  0  0  0  0
    3.2844    1.8415    0.0000 C   0  0  0  0  0  0  0  0  0  0  0  0
    3.6967    1.1269    0.0000 C   0  0  0  0  0  0  0  0  0  0  0  0
    3.6967    2.5652    0.0000 C   0  0  0  0  0  0  0  0  0  0  0  0
    6.1703    2.5652    0.0000 C   0  0  0  0  0  0  0  0  0  0  0  0
    1.2231    2.5652    0.0000 C   0  0  0  0  0  0  0  0  0  0  0  0
    0.3985    2.5652    0.0000 C   0  0  0  0  0  0  0  0  0  0  0  0
    5.7581    1.8415    0.0000 C   0  0  0  0  0  0  0  0  0  0  0  0
    7.4071    3.2798    0.0000 O   0  5  0  0  0  0  0  0  0  0  0  0
    4.9335    1.8415    0.0000 C   0  0  0  0  0  0  0  0  0  0  0  0
    7.4071    1.8415    0.0000 O   0  0  0  0  0  0  0  0  0  0  0  0
    4.5212    1.1269    0.0000 C   0  0  0  0  0  0  0  0  0  0  0  0
    4.5212    2.5652    0.0000 C   0  0  0  0  0  0  0  0  0  0  0  0
    3.2844    0.4123    0.0000 Br  0  0  0  0  0  0  0  0  0  0  0  0
    2.4599    1.8415    0.0000 O   0  0  0  0  0  0  0  0  0  0  0  0
    3.2844    3.2798    0.0000 O   0  0  0  0  0  0  0  0  0  0  0  0
    2.0476    2.5652    0.0000 C   0  0  0  0  0  0  0  0  0  0  0  0
    3.6967    3.9853    0.0000 C   0  0  0  0  0  0  0  0  0  0  0  0
  2  4  1  0  0  0  0
  3 12  1  0  0  0  0
  4 13  2  0  0  0  0
  5  1  1  0  0  0  0
  6 17  1  0  0  0  0
  7  6  3  0  0  0  0
  8  5  2  0  0  0  0
  9  1  1  0  0  0  0
 10  8  1  0  0  0  0
 11  1  2  0  0  0  0
 12 10  2  0  0  0  0
 13 10  1  0  0  0  0
 14  3  1  0  0  0  0
 15  2  1  0  0  0  0
 16  4  1  0  0  0  0
 17 15  1  0  0  0  0
 18 16  1  0  0  0  0
  3  2  2  0  0  0  0
M  CHG  2   1   1   9  -1
M  END
>  <Mol Weight>
312.116

>  <Click ID>
CLK020_H03

>  <Plant Activity>
0

>  <Yeast Activity>
1

$$$$

  Marvin  06120816592D          

 18 19  0  0  0  0            999 V2000
    4.2394   -2.4887    0.0000 C   0  0  0  0  0  0  0  0  0  0  0  0
    3.8361   -1.7646    0.0000 C   0  0  0  0  0  0  0  0  0  0  0  0
    4.2211   -3.9095    0.0000 N   0  0  0  0  0  0  0  0  0  0  0  0
    5.0598   -2.4933    0.0000 C   0  0  0  0  0  0  0  0  0  0  0  0
    5.4632   -3.2174    0.0000 O   0  0  0  0  0  0  0  0  0  0  0  0
    3.8132   -3.1945    0.0000 C   0  0  0  0  0  0  0  0  0  0  0  0
    3.0111   -1.7508    0.0000 C   0  0  0  0  0  0  0  0  0  0  0  0
    3.0570    1.0999    0.0000 C   0  0  0  0  0  0  0  0  0  0  0  0
    2.6537    1.8241    0.0000 C   0  0  0  0  0  0  0  0  0  0  0  0
    5.4770   -1.7875    0.0000 O   0  0  0  0  0  0  0  0  0  0  0  0
    2.6124   -1.0358    0.0000 C   0  0  0  0  0  0  0  0  0  0  0  0
    3.0295   -0.3208    0.0000 O   0  0  0  0  0  0  0  0  0  0  0  0
    2.6308    0.3941    0.0000 C   0  0  0  0  0  0  0  0  0  0  0  0
    2.9883   -3.1807    0.0000 C   0  0  0  0  0  0  0  0  0  0  0  0
    2.5896   -2.4658    0.0000 C   0  0  0  0  0  0  0  0  0  0  0  0
    1.7875   -1.0221    0.0000 C   0  0  0  0  0  0  0  0  0  0  0  0
    1.7646   -2.4521    0.0000 C   0  0  0  0  0  0  0  0  0  0  0  0
    1.3658   -1.7325    0.0000 C   0  0  0  0  0  0  0  0  0  0  0  0
  2  1  2  0  0  0  0
  3  6  2  0  0  0  0
  4  1  1  0  0  0  0
  5  4  1  0  0  0  0
  6  1  1  0  0  0  0
  7  2  1  0  0  0  0
  8 13  1  0  0  0  0
  9  8  3  0  0  0  0
 10  4  2  0  0  0  0
 11  7  1  0  0  0  0
 12 11  1  0  0  0  0
 13 12  1  0  0  0  0
 14  6  1  0  0  0  0
 15  7  2  0  0  0  0
 16 11  2  0  0  0  0
 17 15  1  0  0  0  0
 18 17  2  0  0  0  0
  3  5  1  0  0  0  0
 16 18  1  0  0  0  0
M  END
>  <Mol Weight>
241.242

>  <Click ID>
CLK020_G07

>  <Plant Activity>
0

>  <Yeast Activity>
1

$$$$

  Marvin  06120816592D          

 17 17  0  0  0  0            999 V2000
    6.9857    2.5652    0.0000 N   0  3  0  0  0  0  0  0  0  0  0  0
    3.2753    1.8415    0.0000 C   0  0  0  0  0  0  0  0  0  0  0  0
    3.6876    1.1269    0.0000 C   0  0  0  0  0  0  0  0  0  0  0  0
    3.6876    2.5652    0.0000 C   0  0  0  0  0  0  0  0  0  0  0  0
    6.1612    2.5652    0.0000 C   0  0  0  0  0  0  0  0  0  0  0  0
    1.2139    2.5652    0.0000 C   0  0  0  0  0  0  0  0  0  0  0  0
    0.3894    2.5652    0.0000 C   0  0  0  0  0  0  0  0  0  0  0  0
    5.7489    1.8415    0.0000 C   0  0  0  0  0  0  0  0  0  0  0  0
    7.3980    3.2798    0.0000 O   0  5  0  0  0  0  0  0  0  0  0  0
    4.9244    1.8415    0.0000 C   0  0  0  0  0  0  0  0  0  0  0  0
    7.3980    1.8415    0.0000 O   0  0  0  0  0  0  0  0  0  0  0  0
    4.5121    1.1269    0.0000 C   0  0  0  0  0  0  0  0  0  0  0  0
    4.5121    2.5652    0.0000 C   0  0  0  0  0  0  0  0  0  0  0  0
    3.2753    0.4123    0.0000 Cl  0  0  0  0  0  0  0  0  0  0  0  0
    3.2753    3.2798    0.0000 Cl  0  0  0  0  0  0  0  0  0  0  0  0
    2.4508    1.8415    0.0000 O   0  0  0  0  0  0  0  0  0  0  0  0
    2.0385    2.5652    0.0000 C   0  0  0  0  0  0  0  0  0  0  0  0
  2  4  1  0  0  0  0
  3 12  1  0  0  0  0
  4 13  2  0  0  0  0
  5  1  1  0  0  0  0
  6 17  1  0  0  0  0
  7  6  3  0  0  0  0
  8  5  2  0  0  0  0
  9  1  1  0  0  0  0
 10  8  1  0  0  0  0
 11  1  2  0  0  0  0
 12 10  2  0  0  0  0
 13 10  1  0  0  0  0
 14  3  1  0  0  0  0
 15  4  1  0  0  0  0
 16  2  1  0  0  0  0
 17 16  1  0  0  0  0
  3  2  2  0  0  0  0
M  CHG  2   1   1   9  -1
M  END
>  <Mol Weight>
272.084

>  <Click ID>
CLK020_G03

>  <Plant Activity>
0

>  <Yeast Activity>
1

$$$$

  Marvin  06120816592D          

 24 26  0  0  0  0            999 V2000
    4.2394   -2.4887    0.0000 C   0  0  0  0  0  0  0  0  0  0  0  0
    5.4632   -3.2174    0.0000 N   0  0  0  0  0  0  0  0  0  0  0  0
    5.0598   -2.4933    0.0000 C   0  0  0  0  0  0  0  0  0  0  0  0
    4.2211   -3.9095    0.0000 N   0  0  0  0  0  0  0  0  0  0  0  0
    3.8132   -3.1945    0.0000 C   0  0  0  0  0  0  0  0  0  0  0  0
    3.8361   -1.7646    0.0000 C   0  0  0  0  0  0  0  0  0  0  0  0
    3.0111   -1.7508    0.0000 C   0  0  0  0  0  0  0  0  0  0  0  0
    3.0570    1.0999    0.0000 C   0  0  0  0  0  0  0  0  0  0  0  0
    2.6537    1.8241    0.0000 C   0  0  0  0  0  0  0  0  0  0  0  0
    6.2607   -3.4420    0.0000 C   0  0  0  0  0  0  0  0  0  0  0  0
    5.4770   -1.7875    0.0000 O   0  0  0  0  0  0  0  0  0  0  0  0
    2.6124   -1.0358    0.0000 C   0  0  0  0  0  0  0  0  0  0  0  0
    2.9883   -3.1807    0.0000 C   0  0  0  0  0  0  0  0  0  0  0  0
    3.0295   -0.3208    0.0000 O   0  0  0  0  0  0  0  0  0  0  0  0
    2.6308    0.3941    0.0000 C   0  0  0  0  0  0  0  0  0  0  0  0
    2.5896   -2.4658    0.0000 C   0  0  0  0  0  0  0  0  0  0  0  0
    6.4623   -4.2394    0.0000 C   0  0  0  0  0  0  0  0  0  0  0  0
    6.8519   -2.8645    0.0000 C   0  0  0  0  0  0  0  0  0  0  0  0
    1.7875   -1.0221    0.0000 C   0  0  0  0  0  0  0  0  0  0  0  0
    1.7646   -2.4521    0.0000 C   0  0  0  0  0  0  0  0  0  0  0  0
    7.2507   -4.4595    0.0000 C   0  0  0  0  0  0  0  0  0  0  0  0
    7.6447   -3.0845    0.0000 C   0  0  0  0  0  0  0  0  0  0  0  0
    1.3658   -1.7325    0.0000 C   0  0  0  0  0  0  0  0  0  0  0  0
    7.8418   -3.8911    0.0000 C   0  0  0  0  0  0  0  0  0  0  0  0
  2  3  1  0  0  0  0
  3  1  1  0  0  0  0
  4  5  2  0  0  0  0
  5  1  1  0  0  0  0
  6  1  2  0  0  0  0
  7  6  1  0  0  0  0
  8 15  1  0  0  0  0
  9  8  3  0  0  0  0
 10  2  1  0  0  0  0
 11  3  2  0  0  0  0
 12  7  1  0  0  0  0
 13  5  1  0  0  0  0
 14 12  1  0  0  0  0
 15 14  1  0  0  0  0
 16  7  2  0  0  0  0
 17 10  2  0  0  0  0
 18 10  1  0  0  0  0
 19 12  2  0  0  0  0
 20 16  1  0  0  0  0
 21 17  1  0  0  0  0
 22 18  2  0  0  0  0
 23 20  2  0  0  0  0
 24 22  1  0  0  0  0
  4  2  1  0  0  0  0
 19 23  1  0  0  0  0
 24 21  2  0  0  0  0
M  END
>  <Mol Weight>
316.3532

>  <Click ID>
CLK020_B08

>  <Plant Activity>
0

>  <Yeast Activity>
1

$$$$

  Marvin  06120816592D          

 17 17  0  0  0  0            999 V2000
    1.7460   -1.7369    0.0000 C   0  0  0  0  0  0  0  0  0  0  0  0
    2.1447   -2.4518    0.0000 C   0  0  0  0  0  0  0  0  0  0  0  0
    2.1631   -1.0220    0.0000 C   0  0  0  0  0  0  0  0  0  0  0  0
   -0.3300   -2.4197    0.0000 C   0  0  0  0  0  0  0  0  0  0  0  0
   -0.7515   -3.1254    0.0000 C   0  0  0  0  0  0  0  0  0  0  0  0
    2.9696   -2.4655    0.0000 C   0  0  0  0  0  0  0  0  0  0  0  0
    2.9880   -1.0357    0.0000 C   0  0  0  0  0  0  0  0  0  0  0  0
    3.3866   -1.7598    0.0000 C   0  0  0  0  0  0  0  0  0  0  0  0
    4.6194   -2.4930    0.0000 N   0  0  0  0  0  0  0  0  0  0  0  0
    4.2115   -1.7735    0.0000 C   0  0  0  0  0  0  0  0  0  0  0  0
    1.7231   -3.1667    0.0000 Br  0  0  0  0  0  0  0  0  0  0  0  0
    0.9211   -1.7231    0.0000 O   0  0  0  0  0  0  0  0  0  0  0  0
    1.7644   -0.3071    0.0000 O   0  0  0  0  0  0  0  0  0  0  0  0
    5.4305   -2.5296    0.0000 O   0  0  0  0  0  0  0  0  0  0  0  0
    0.4949   -2.4334    0.0000 C   0  0  0  0  0  0  0  0  0  0  0  0
    2.1859    0.3987    0.0000 C   0  0  0  0  0  0  0  0  0  0  0  0
    1.7873    1.1227    0.0000 C   0  0  0  0  0  0  0  0  0  0  0  0
  2  1  2  0  0  0  0
  3  1  1  0  0  0  0
  4 15  1  0  0  0  0
  5  4  3  0  0  0  0
  6  2  1  0  0  0  0
  7  3  2  0  0  0  0
  8  7  1  0  0  0  0
  9 10  2  0  0  0  0
 10  8  1  0  0  0  0
 11  2  1  0  0  0  0
 12  1  1  0  0  0  0
 13  3  1  0  0  0  0
 14  9  1  0  0  0  0
 15 12  1  0  0  0  0
 16 13  1  0  0  0  0
 17 16  1  0  0  0  0
  6  8  2  0  0  0  0
M  END
>  <Mol Weight>
298.133

>  <Click ID>
CLK018_G08

>  <Plant Activity>
0

>  <Yeast Activity>
1

$$$$

  Marvin  06120816592D          

 20 21  0  0  0  0            999 V2000
    4.1917   -4.8375    0.0000 C   0  0  0  0  0  0  0  0  0  0  0  0
    4.9042   -5.2417    0.0000 C   0  0  0  0  0  0  0  0  0  0  0  0
    3.2875   -3.8500    0.0000 N   0  0  0  0  0  0  0  0  0  0  0  0
    3.4167   -5.1792    0.0000 C   0  0  0  0  0  0  0  0  0  0  0  0
    2.8667   -4.5667    0.0000 O   0  0  0  0  0  0  0  0  0  0  0  0
    4.1000   -4.0250    0.0000 C   0  0  0  0  0  0  0  0  0  0  0  0
    4.9125   -6.0667    0.0000 C   0  0  0  0  0  0  0  0  0  0  0  0
    5.6250   -6.4792    0.0000 C   0  0  0  0  0  0  0  0  0  0  0  0
    7.0375   -4.8250    0.0000 C   0  0  0  0  0  0  0  0  0  0  0  0
    7.7542   -4.4167    0.0000 C   0  0  0  0  0  0  0  0  0  0  0  0
    3.2500   -5.9917    0.0000 O   0  0  0  0  0  0  0  0  0  0  0  0
    5.6250   -7.3042    0.0000 C   0  0  0  0  0  0  0  0  0  0  0  0
    6.3292   -6.0667    0.0000 O   0  0  0  0  0  0  0  0  0  0  0  0
    6.3417   -7.7125    0.0000 O   0  0  0  0  0  0  0  0  0  0  0  0
    6.3250   -5.2417    0.0000 C   0  0  0  0  0  0  0  0  0  0  0  0
    4.1917   -6.4792    0.0000 C   0  0  0  0  0  0  0  0  0  0  0  0
    4.7167   -3.4667    0.0000 C   0  0  0  0  0  0  0  0  0  0  0  0
    4.1917   -7.3042    0.0000 C   0  0  0  0  0  0  0  0  0  0  0  0
    4.9125   -7.7167    0.0000 C   0  0  0  0  0  0  0  0  0  0  0  0
    6.3417   -8.5375    0.0000 C   0  0  0  0  0  0  0  0  0  0  0  0
  2  1  2  0  0  0  0
  3  6  2  0  0  0  0
  4  1  1  0  0  0  0
  5  4  1  0  0  0  0
  6  1  1  0  0  0  0
  7  2  1  0  0  0  0
  8  7  2  0  0  0  0
  9 15  1  0  0  0  0
 10  9  3  0  0  0  0
 11  4  2  0  0  0  0
 12  8  1  0  0  0  0
 13  8  1  0  0  0  0
 14 12  1  0  0  0  0
 15 13  1  0  0  0  0
 16  7  1  0  0  0  0
 17  6  1  0  0  0  0
 18 16  2  0  0  0  0
 19 18  1  0  0  0  0
 20 14  1  0  0  0  0
  3  5  1  0  0  0  0
 19 12  2  0  0  0  0
M  END
>  <Mol Weight>
271.268

>  <Click ID>
CLK018_F03

>  <Plant Activity>
0

>  <Yeast Activity>
1

$$$$

  Marvin  06120816592D          

 16 16  0  0  0  0            999 V2000
   -0.3976    0.0734    0.0000 N   0  3  0  0  0  0  0  0  0  0  0  0
    0.3501   -0.3544    0.0000 C   0  0  0  0  0  0  0  0  0  0  0  0
    1.0891    0.0734    0.0000 C   0  0  0  0  0  0  0  0  0  0  0  0
    1.8325   -0.3544    0.0000 C   0  0  0  0  0  0  0  0  0  0  0  0
    3.9717    1.6941    0.0000 C   0  0  0  0  0  0  0  0  0  0  0  0
    4.4644    2.5109    0.0000 C   0  0  0  0  0  0  0  0  0  0  0  0
   -0.3976    0.9291    0.0000 O   0  5  0  0  0  0  0  0  0  0  0  0
   -1.1366   -0.3544    0.0000 O   0  0  0  0  0  0  0  0  0  0  0  0
    2.5326    0.0519    0.0000 C   0  0  0  0  0  0  0  0  0  0  0  0
    1.8325   -1.1712    0.0000 C   0  0  0  0  0  0  0  0  0  0  0  0
    3.2457   -0.3544    0.0000 C   0  0  0  0  0  0  0  0  0  0  0  0
    2.5326   -1.5861    0.0000 C   0  0  0  0  0  0  0  0  0  0  0  0
    3.2457   -1.1712    0.0000 C   0  0  0  0  0  0  0  0  0  0  0  0
    2.5326   -2.3900    0.0000 Br  0  0  0  0  0  0  0  0  0  0  0  0
    2.5455    0.8773    0.0000 O   0  0  0  0  0  0  0  0  0  0  0  0
    3.0339    1.6941    0.0000 C   0  0  0  0  0  0  0  0  0  0  0  0
  2  1  1  0  0  0  0
  3  2  2  0  0  0  0
  4  3  1  0  0  0  0
  5 16  1  0  0  0  0
  6  5  3  0  0  0  0
  7  1  1  0  0  0  0
  8  1  2  0  0  0  0
  9  4  2  0  0  0  0
 10  4  1  0  0  0  0
 11  9  1  0  0  0  0
 12 10  2  0  0  0  0
 13 12  1  0  0  0  0
 14 12  1  0  0  0  0
 15  9  1  0  0  0  0
 16 15  1  0  0  0  0
 11 13  2  0  0  0  0
M  CHG  2   1   1   7  -1
M  END
>  <Mol Weight>
282.09

>  <Click ID>
CLK018_E02

>  <Plant Activity>
0

>  <Yeast Activity>
1

$$$$

  Marvin  06120816592D          

 25 26  0  0  0  0            999 V2000
    4.3261   -4.8116    0.0000 C   0  0  0  0  0  0  0  0  0  0  0  0
    3.7726   -5.4234    0.0000 C   0  0  0  0  0  0  0  0  0  0  0  0
    4.0688   -4.0251    0.0000 C   0  0  0  0  0  0  0  0  0  0  0  0
    2.9618   -5.2486    0.0000 O   0  0  0  0  0  0  0  0  0  0  0  0
    3.2677   -3.8503    0.0000 O   0  0  0  0  0  0  0  0  0  0  0  0
    2.7141   -4.4621    0.0000 C   0  0  0  0  0  0  0  0  0  0  0  0
    5.1321   -4.9719    0.0000 C   0  0  0  0  0  0  0  0  0  0  0  0
    6.7731   -3.1366    0.0000 C   0  0  0  0  0  0  0  0  0  0  0  0
    7.0402   -3.9086    0.0000 C   0  0  0  0  0  0  0  0  0  0  0  0
    5.9720   -2.9714    0.0000 C   0  0  0  0  0  0  0  0  0  0  0  0
    5.6807   -4.3601    0.0000 C   0  0  0  0  0  0  0  0  0  0  0  0
    8.6570   -2.0441    0.0000 C   0  0  0  0  0  0  0  0  0  0  0  0
    9.1960   -1.4178    0.0000 C   0  0  0  0  0  0  0  0  0  0  0  0
    6.4867   -4.5300    0.0000 C   0  0  0  0  0  0  0  0  0  0  0  0
    5.4234   -3.5881    0.0000 C   0  0  0  0  0  0  0  0  0  0  0  0
    4.6223   -3.4133    0.0000 O   0  0  0  0  0  0  0  0  0  0  0  0
    4.0251   -6.2100    0.0000 O   0  0  0  0  0  0  0  0  0  0  0  0
    7.8559   -4.0688    0.0000 Br  0  0  0  0  0  0  0  0  0  0  0  0
    7.3170   -2.5102    0.0000 O   0  0  0  0  0  0  0  0  0  0  0  0
    5.7147   -2.1752    0.0000 O   0  0  0  0  0  0  0  0  0  0  0  0
    1.8985   -4.2873    0.0000 C   0  0  0  0  0  0  0  0  0  0  0  0
    1.8936   -4.5737    0.0000 C   0  0  0  0  0  0  0  0  0  0  0  0
    8.1278   -2.6656    0.0000 C   0  0  0  0  0  0  0  0  0  0  0  0
    4.9087   -2.0004    0.0000 C   0  0  0  0  0  0  0  0  0  0  0  0
    4.6514   -1.2139    0.0000 C   0  0  0  0  0  0  0  0  0  0  0  0
  2  1  1  0  0  0  0
  3  1  1  0  0  0  0
  4  2  1  0  0  0  0
  5  3  1  0  0  0  0
  6  5  1  0  0  0  0
  7  1  2  0  0  0  0
  8 10  1  0  0  0  0
  9 14  1  0  0  0  0
 10 15  2  0  0  0  0
 11  7  1  0  0  0  0
 12 23  1  0  0  0  0
 13 12  3  0  0  0  0
 14 11  2  0  0  0  0
 15 11  1  0  0  0  0
 16  3  2  0  0  0  0
 17  2  2  0  0  0  0
 18  9  1  0  0  0  0
 19  8  1  0  0  0  0
 20 10  1  0  0  0  0
 21  6  1  0  0  0  0
 22  6  1  0  0  0  0
 23 19  1  0  0  0  0
 24 20  1  0  0  0  0
 25 24  1  0  0  0  0
  4  6  1  0  0  0  0
  8  9  2  0  0  0  0
M  END
>  <Mol Weight>
409.228

>  <Click ID>
CLK018_D06

>  <Plant Activity>
0

>  <Yeast Activity>
1

$$$$

  Marvin  06120816592D          

 26 28  0  0  0  0            999 V2000
   -0.5389   -4.8622    0.0000 C   0  0  0  0  0  0  0  0  0  0  0  0
    0.7762   -4.5767    0.0000 N   0  0  0  0  0  0  0  0  0  0  0  0
    0.2092   -5.1920    0.0000 C   0  0  0  0  0  0  0  0  0  0  0  0
   -0.4424   -4.0217    0.0000 C   0  0  0  0  0  0  0  0  0  0  0  0
    0.3660   -3.8528    0.0000 O   0  0  0  0  0  0  0  0  0  0  0  0
   -1.2548   -5.2765    0.0000 C   0  0  0  0  0  0  0  0  0  0  0  0
   -5.4011   -3.6598    0.0000 C   0  0  0  0  0  0  0  0  0  0  0  0
   -6.0929   -3.2496    0.0000 C   0  0  0  0  0  0  0  0  0  0  0  0
   -3.3500   -4.8863    0.0000 C   0  0  0  0  0  0  0  0  0  0  0  0
   -1.9425   -4.8743    0.0000 C   0  0  0  0  0  0  0  0  0  0  0  0
    0.3861   -6.0084    0.0000 C   0  0  0  0  0  0  0  0  0  0  0  0
   -2.6422   -5.2966    0.0000 C   0  0  0  0  0  0  0  0  0  0  0  0
   -3.3259   -4.0659    0.0000 C   0  0  0  0  0  0  0  0  0  0  0  0
   -1.0577   -3.4627    0.0000 O   0  0  0  0  0  0  0  0  0  0  0  0
   -2.6181   -3.6436    0.0000 C   0  0  0  0  0  0  0  0  0  0  0  0
   -1.9264   -4.0579    0.0000 C   0  0  0  0  0  0  0  0  0  0  0  0
   -4.0619   -5.3006    0.0000 O   0  0  0  0  0  0  0  0  0  0  0  0
   -4.0136   -3.6477    0.0000 O   0  0  0  0  0  0  0  0  0  0  0  0
   -4.7254   -4.0579    0.0000 C   0  0  0  0  0  0  0  0  0  0  0  0
   -0.2372   -6.5554    0.0000 C   0  0  0  0  0  0  0  0  0  0  0  0
    1.1744   -6.2618    0.0000 C   0  0  0  0  0  0  0  0  0  0  0  0
   -4.0739   -6.1210    0.0000 C   0  0  0  0  0  0  0  0  0  0  0  0
   -4.7858   -6.5433    0.0000 C   0  0  0  0  0  0  0  0  0  0  0  0
    1.3433   -7.0742    0.0000 C   0  0  0  0  0  0  0  0  0  0  0  0
   -0.0683   -7.3717    0.0000 C   0  0  0  0  0  0  0  0  0  0  0  0
    0.7239   -7.6292    0.0000 C   0  0  0  0  0  0  0  0  0  0  0  0
  2  3  2  0  0  0  0
  3  1  1  0  0  0  0
  4  1  1  0  0  0  0
  5  4  1  0  0  0  0
  6  1  2  0  0  0  0
  7 19  1  0  0  0  0
  8  7  3  0  0  0  0
  9 12  1  0  0  0  0
 10  6  1  0  0  0  0
 11  3  1  0  0  0  0
 12 10  2  0  0  0  0
 13 15  1  0  0  0  0
 14  4  2  0  0  0  0
 15 16  2  0  0  0  0
 16 10  1  0  0  0  0
 17  9  1  0  0  0  0
 18 13  1  0  0  0  0
 19 18  1  0  0  0  0
 20 11  2  0  0  0  0
 21 11  1  0  0  0  0
 22 17  1  0  0  0  0
 23 22  1  0  0  0  0
 24 21  2  0  0  0  0
 25 20  1  0  0  0  0
 26 24  1  0  0  0  0
  5  2  1  0  0  0  0
  9 13  2  0  0  0  0
 26 25  2  0  0  0  0
M  END
>  <Mol Weight>
347.364

>  <Click ID>
CLK018_D02

>  <Plant Activity>
0

>  <Yeast Activity>
1

$$$$

  Marvin  06120816592D          

 22 23  0  0  0  0            999 V2000
    2.9500   -0.6417    0.0000 C   0  0  0  0  0  0  0  0  0  0  0  0
    3.6625   -1.8875    0.0000 N   0  0  0  0  0  0  0  0  0  0  0  0
    2.2417   -1.8875    0.0000 N   0  0  0  0  0  0  0  0  0  0  0  0
    2.9500   -2.2917    0.0000 C   0  0  0  0  0  0  0  0  0  0  0  0
    2.2417   -1.0625    0.0000 C   0  0  0  0  0  0  0  0  0  0  0  0
    3.6625   -1.0625    0.0000 C   0  0  0  0  0  0  0  0  0  0  0  0
    2.9500    0.1833    0.0000 C   0  0  0  0  0  0  0  0  0  0  0  0
    7.3292    1.7958    0.0000 C   0  0  0  0  0  0  0  0  0  0  0  0
    2.9500   -3.1167    0.0000 O   0  0  0  0  0  0  0  0  0  0  0  0
    8.0792    2.2250    0.0000 C   0  0  0  0  0  0  0  0  0  0  0  0
    4.3792   -0.6500    0.0000 O   0  0  0  0  0  0  0  0  0  0  0  0
    1.5250   -0.6500    0.0000 O   0  0  0  0  0  0  0  0  0  0  0  0
    1.5250   -2.3000    0.0000 C   0  0  0  0  0  0  0  0  0  0  0  0
    4.3792   -2.3000    0.0000 C   0  0  0  0  0  0  0  0  0  0  0  0
    3.6667    0.5833    0.0000 C   0  0  0  0  0  0  0  0  0  0  0  0
    5.1125    1.4000    0.0000 C   0  0  0  0  0  0  0  0  0  0  0  0
    4.3917    0.1708    0.0000 C   0  0  0  0  0  0  0  0  0  0  0  0
    3.6875    1.4083    0.0000 C   0  0  0  0  0  0  0  0  0  0  0  0
    4.4042    1.8208    0.0000 C   0  0  0  0  0  0  0  0  0  0  0  0
    5.1042    0.5833    0.0000 C   0  0  0  0  0  0  0  0  0  0  0  0
    6.5792    2.2333    0.0000 C   0  0  0  0  0  0  0  0  0  0  0  0
    5.8167    1.8083    0.0000 O   0  0  0  0  0  0  0  0  0  0  0  0
  2  6  1  0  0  0  0
  3  5  1  0  0  0  0
  4  2  1  0  0  0  0
  5  1  1  0  0  0  0
  6  1  1  0  0  0  0
  7  1  2  0  0  0  0
  8 21  1  0  0  0  0
  9  4  2  0  0  0  0
 10  8  3  0  0  0  0
 11  6  2  0  0  0  0
 12  5  2  0  0  0  0
 13  3  1  0  0  0  0
 14  2  1  0  0  0  0
 15  7  1  0  0  0  0
 16 19  2  0  0  0  0
 17 15  1  0  0  0  0
 18 15  2  0  0  0  0
 19 18  1  0  0  0  0
 20 17  2  0  0  0  0
 21 22  1  0  0  0  0
 22 16  1  0  0  0  0
  4  3  1  0  0  0  0
 16 20  1  0  0  0  0
M  END
>  <Mol Weight>
298.2934

>  <Click ID>
CLK018_C09

>  <Plant Activity>
0

>  <Yeast Activity>
1

$$$$

  Marvin  06120816592D          

 20 21  0  0  0  0            999 V2000
    4.6194   -2.4930    0.0000 C   0  0  0  0  0  0  0  0  0  0  0  0
    4.5965   -3.9091    0.0000 N   0  0  0  0  0  0  0  0  0  0  0  0
    5.4351   -2.5022    0.0000 C   0  0  0  0  0  0  0  0  0  0  0  0
    5.8429   -3.2217    0.0000 O   0  0  0  0  0  0  0  0  0  0  0  0
    4.2115   -1.7735    0.0000 C   0  0  0  0  0  0  0  0  0  0  0  0
    4.1978   -3.1942    0.0000 C   0  0  0  0  0  0  0  0  0  0  0  0
   -0.3300   -2.4197    0.0000 C   0  0  0  0  0  0  0  0  0  0  0  0
   -0.7515   -3.1254    0.0000 C   0  0  0  0  0  0  0  0  0  0  0  0
    2.1631   -1.0220    0.0000 C   0  0  0  0  0  0  0  0  0  0  0  0
    3.3866   -1.7598    0.0000 C   0  0  0  0  0  0  0  0  0  0  0  0
    2.9880   -1.0357    0.0000 C   0  0  0  0  0  0  0  0  0  0  0  0
    1.7460   -1.7369    0.0000 C   0  0  0  0  0  0  0  0  0  0  0  0
    5.8613   -1.7919    0.0000 O   0  0  0  0  0  0  0  0  0  0  0  0
    2.1447   -2.4518    0.0000 C   0  0  0  0  0  0  0  0  0  0  0  0
    2.9696   -2.4655    0.0000 C   0  0  0  0  0  0  0  0  0  0  0  0
    1.7644   -0.3071    0.0000 O   0  0  0  0  0  0  0  0  0  0  0  0
    0.9211   -1.7231    0.0000 O   0  0  0  0  0  0  0  0  0  0  0  0
    0.4949   -2.4334    0.0000 C   0  0  0  0  0  0  0  0  0  0  0  0
    3.3729   -3.1896    0.0000 C   0  0  0  0  0  0  0  0  0  0  0  0
    2.1859    0.3987    0.0000 C   0  0  0  0  0  0  0  0  0  0  0  0
  2  6  2  0  0  0  0
  3  1  1  0  0  0  0
  4  3  1  0  0  0  0
  5  1  2  0  0  0  0
  6  1  1  0  0  0  0
  7 18  1  0  0  0  0
  8  7  3  0  0  0  0
  9 11  2  0  0  0  0
 10  5  1  0  0  0  0
 11 10  1  0  0  0  0
 12 14  2  0  0  0  0
 13  3  2  0  0  0  0
 14 15  1  0  0  0  0
 15 10  2  0  0  0  0
 16  9  1  0  0  0  0
 17 12  1  0  0  0  0
 18 17  1  0  0  0  0
 19  6  1  0  0  0  0
 20 16  1  0  0  0  0
  2  4  1  0  0  0  0
 12  9  1  0  0  0  0
M  END
>  <Mol Weight>
271.268

>  <Click ID>
CLK018_C07

>  <Plant Activity>
0

>  <Yeast Activity>
1

$$$$

  Marvin  06120816592D          

 19 20  0  0  0  0            999 V2000
    1.5629   -0.8147    0.0000 N   0  0  0  0  0  0  0  0  0  0  0  0
    1.8205   -1.6003    0.0000 C   0  0  0  0  0  0  0  0  0  0  0  0
    2.2320   -0.3284    0.0000 C   0  0  0  0  0  0  0  0  0  0  0  0
    2.8971   -0.8147    0.0000 C   0  0  0  0  0  0  0  0  0  0  0  0
    2.6435   -1.6003    0.0000 S   0  0  0  0  0  0  0  0  0  0  0  0
    3.6827   -0.5611    0.0000 C   0  0  0  0  0  0  0  0  0  0  0  0
    0.6110    0.2452    0.0000 C   0  0  0  0  0  0  0  0  0  0  0  0
    0.3907    1.0432    0.0000 C   0  0  0  0  0  0  0  0  0  0  0  0
    4.8174    1.2926    0.0000 C   0  0  0  0  0  0  0  0  0  0  0  0
    1.3342   -2.2611    0.0000 O   0  0  0  0  0  0  0  0  0  0  0  0
    2.2237    0.4946    0.0000 O   0  0  0  0  0  0  0  0  0  0  0  0
    3.8530    0.2452    0.0000 C   0  0  0  0  0  0  0  0  0  0  0  0
    0.7856   -0.5611    0.0000 C   0  0  0  0  0  0  0  0  0  0  0  0
    4.2064    1.8537    0.0000 C   0  0  0  0  0  0  0  0  0  0  0  0
    4.6428    0.4946    0.0000 C   0  0  0  0  0  0  0  0  0  0  0  0
    3.4208    1.6044    0.0000 C   0  0  0  0  0  0  0  0  0  0  0  0
    5.6112    1.5420    0.0000 I   0  0  0  0  0  0  0  0  0  0  0  0
    3.2462    0.7980    0.0000 C   0  0  0  0  0  0  0  0  0  0  0  0
    4.3934    2.6560    0.0000 O   0  0  0  0  0  0  0  0  0  0  0  0
  2  1  1  0  0  0  0
  3  1  1  0  0  0  0
  4  3  1  0  0  0  0
  5  2  1  0  0  0  0
  6  4  2  0  0  0  0
  7 13  1  0  0  0  0
  8  7  3  0  0  0  0
  9 15  2  0  0  0  0
 10  2  2  0  0  0  0
 11  3  2  0  0  0  0
 12  6  1  0  0  0  0
 13  1  1  0  0  0  0
 14 16  2  0  0  0  0
 15 12  1  0  0  0  0
 16 18  1  0  0  0  0
 17  9  1  0  0  0  0
 18 12  2  0  0  0  0
 19 14  1  0  0  0  0
  4  5  1  0  0  0  0
  9 14  1  0  0  0  0
M  END
>  <Mol Weight>
385.177

>  <Click ID>
CLK016_D04

>  <Plant Activity>
0

>  <Yeast Activity>
1

$$$$

  Marvin  06120816592D          

 22 23  0  0  0  0            999 V2000
    1.5722   -0.8195    0.0000 N   0  0  0  0  0  0  0  0  0  0  0  0
    1.8314   -1.6098    0.0000 C   0  0  0  0  0  0  0  0  0  0  0  0
    2.2453   -0.3303    0.0000 C   0  0  0  0  0  0  0  0  0  0  0  0
    2.9143   -0.8195    0.0000 C   0  0  0  0  0  0  0  0  0  0  0  0
    2.6592   -1.6098    0.0000 S   0  0  0  0  0  0  0  0  0  0  0  0
    3.7046   -0.5645    0.0000 C   0  0  0  0  0  0  0  0  0  0  0  0
    0.6146    0.2467    0.0000 C   0  0  0  0  0  0  0  0  0  0  0  0
    0.3931    1.0494    0.0000 C   0  0  0  0  0  0  0  0  0  0  0  0
    1.3422   -2.2746    0.0000 O   0  0  0  0  0  0  0  0  0  0  0  0
    3.4286    1.5930    0.0000 C   0  0  0  0  0  0  0  0  0  0  0  0
    2.2370    0.4975    0.0000 O   0  0  0  0  0  0  0  0  0  0  0  0
    3.8676    0.2341    0.0000 C   0  0  0  0  0  0  0  0  0  0  0  0
    0.7902   -0.5645    0.0000 C   0  0  0  0  0  0  0  0  0  0  0  0
    3.2530    0.7986    0.0000 C   0  0  0  0  0  0  0  0  0  0  0  0
    4.2063    1.8522    0.0000 C   0  0  0  0  0  0  0  0  0  0  0  0
    4.8167    1.3045    0.0000 C   0  0  0  0  0  0  0  0  0  0  0  0
    4.6453    0.4975    0.0000 C   0  0  0  0  0  0  0  0  0  0  0  0
    2.8223    2.1533    0.0000 O   0  0  0  0  0  0  0  0  0  0  0  0
    4.3902    2.6676    0.0000 O   0  0  0  0  0  0  0  0  0  0  0  0
    5.1679    2.9059    0.0000 C   0  0  0  0  0  0  0  0  0  0  0  0
    2.0446    1.9024    0.0000 C   0  0  0  0  0  0  0  0  0  0  0  0
    5.3478    3.7087    0.0000 C   0  0  0  0  0  0  0  0  0  0  0  0
  2  1  1  0  0  0  0
  3  1  1  0  0  0  0
  4  3  1  0  0  0  0
  5  2  1  0  0  0  0
  6  4  2  0  0  0  0
  7 13  1  0  0  0  0
  8  7  3  0  0  0  0
  9  2  2  0  0  0  0
 10 14  1  0  0  0  0
 11  3  2  0  0  0  0
 12  6  1  0  0  0  0
 13  1  1  0  0  0  0
 14 12  2  0  0  0  0
 15 16  1  0  0  0  0
 16 17  2  0  0  0  0
 17 12  1  0  0  0  0
 18 10  1  0  0  0  0
 19 15  1  0  0  0  0
 20 19  1  0  0  0  0
 21 18  1  0  0  0  0
 22 20  1  0  0  0  0
  5  4  1  0  0  0  0
 15 10  2  0  0  0  0
M  END
>  <Mol Weight>
317.36

>  <Click ID>
CLK016_A10

>  <Plant Activity>
0

>  <Yeast Activity>
1

$$$$

  Marvin  06120816592D          

 18 19  0  0  0  0            999 V2000
    1.5649   -0.8157    0.0000 N   0  0  0  0  0  0  0  0  0  0  0  0
    1.8229   -1.6023    0.0000 C   0  0  0  0  0  0  0  0  0  0  0  0
    2.2348   -0.3288    0.0000 C   0  0  0  0  0  0  0  0  0  0  0  0
    2.9008   -0.8157    0.0000 C   0  0  0  0  0  0  0  0  0  0  0  0
    2.6468   -1.6023    0.0000 S   0  0  0  0  0  0  0  0  0  0  0  0
    3.6873   -0.5619    0.0000 C   0  0  0  0  0  0  0  0  0  0  0  0
    0.6118    0.2455    0.0000 C   0  0  0  0  0  0  0  0  0  0  0  0
    0.3913    1.0445    0.0000 C   0  0  0  0  0  0  0  0  0  0  0  0
    1.3359   -2.2640    0.0000 O   0  0  0  0  0  0  0  0  0  0  0  0
    2.2265    0.4952    0.0000 O   0  0  0  0  0  0  0  0  0  0  0  0
    0.7865   -0.5619    0.0000 C   0  0  0  0  0  0  0  0  0  0  0  0
    3.8621    0.2455    0.0000 C   0  0  0  0  0  0  0  0  0  0  0  0
    3.2504    0.7948    0.0000 C   0  0  0  0  0  0  0  0  0  0  0  0
    3.4251    1.6064    0.0000 C   0  0  0  0  0  0  0  0  0  0  0  0
    2.8134    2.1557    0.0000 F   0  0  0  0  0  0  0  0  0  0  0  0
    4.8109    1.2985    0.0000 C   0  0  0  0  0  0  0  0  0  0  0  0
    4.6362    0.4952    0.0000 C   0  0  0  0  0  0  0  0  0  0  0  0
    4.2075    1.8478    0.0000 C   0  0  0  0  0  0  0  0  0  0  0  0
  2  1  1  0  0  0  0
  3  1  1  0  0  0  0
  4  3  1  0  0  0  0
  5  2  1  0  0  0  0
  6  4  2  0  0  0  0
  7 11  1  0  0  0  0
  8  7  3  0  0  0  0
  9  2  2  0  0  0  0
 10  3  2  0  0  0  0
 11  1  1  0  0  0  0
 12  6  1  0  0  0  0
 13 12  2  0  0  0  0
 14 13  1  0  0  0  0
 15 14  1  0  0  0  0
 16 17  2  0  0  0  0
 17 12  1  0  0  0  0
 18 16  1  0  0  0  0
  4  5  1  0  0  0  0
 14 18  2  0  0  0  0
M  END
>  <Mol Weight>
261.272

>  <Click ID>
CLK016_A05

>  <Plant Activity>
0

>  <Yeast Activity>
1

$$$$

  Marvin  06120816592D          

 24 25  0  0  0  0            999 V2000
    7.6862   -6.6095    0.0000 C   0  0  0  0  0  0  0  0  0  0  0  0
    7.6862   -5.7782    0.0000 C   0  0  0  0  0  0  0  0  0  0  0  0
    8.3970   -7.0253    0.0000 C   0  0  0  0  0  0  0  0  0  0  0  0
    8.3970   -5.3749    0.0000 O   0  0  0  0  0  0  0  0  0  0  0  0
    9.1162   -6.6137    0.0000 O   0  0  0  0  0  0  0  0  0  0  0  0
    9.1079   -5.7865    0.0000 C   0  0  0  0  0  0  0  0  0  0  0  0
    6.9712   -7.0211    0.0000 C   0  0  0  0  0  0  0  0  0  0  0  0
    2.7062   -5.3500    0.0000 C   0  0  0  0  0  0  0  0  0  0  0  0
    1.9995   -4.9302    0.0000 C   0  0  0  0  0  0  0  0  0  0  0  0
    4.8387   -6.6012    0.0000 C   0  0  0  0  0  0  0  0  0  0  0  0
    6.2603   -6.6012    0.0000 C   0  0  0  0  0  0  0  0  0  0  0  0
    8.3970   -7.8483    0.0000 O   0  0  0  0  0  0  0  0  0  0  0  0
    6.9754   -5.3666    0.0000 O   0  0  0  0  0  0  0  0  0  0  0  0
    5.5537   -7.0128    0.0000 C   0  0  0  0  0  0  0  0  0  0  0  0
    4.8387   -5.7740    0.0000 C   0  0  0  0  0  0  0  0  0  0  0  0
    5.5537   -5.3666    0.0000 C   0  0  0  0  0  0  0  0  0  0  0  0
    6.2645   -5.7865    0.0000 C   0  0  0  0  0  0  0  0  0  0  0  0
    4.1196   -7.0086    0.0000 O   0  0  0  0  0  0  0  0  0  0  0  0
    4.1320   -5.3542    0.0000 O   0  0  0  0  0  0  0  0  0  0  0  0
    9.5277   -5.0673    0.0000 C   0  0  0  0  0  0  0  0  0  0  0  0
    9.9185   -5.9985    0.0000 C   0  0  0  0  0  0  0  0  0  0  0  0
    3.4170   -5.7657    0.0000 C   0  0  0  0  0  0  0  0  0  0  0  0
    4.1154   -7.8234    0.0000 C   0  0  0  0  0  0  0  0  0  0  0  0
    3.3963   -8.2307    0.0000 C   0  0  0  0  0  0  0  0  0  0  0  0
  2  1  1  0  0  0  0
  3  1  1  0  0  0  0
  4  2  1  0  0  0  0
  5  3  1  0  0  0  0
  6  5  1  0  0  0  0
  7  1  2  0  0  0  0
  8 22  1  0  0  0  0
  9  8  3  0  0  0  0
 10 14  1  0  0  0  0
 11  7  1  0  0  0  0
 12  3  2  0  0  0  0
 13  2  2  0  0  0  0
 14 11  2  0  0  0  0
 15 16  1  0  0  0  0
 16 17  2  0  0  0  0
 17 11  1  0  0  0  0
 18 10  1  0  0  0  0
 19 15  1  0  0  0  0
 20  6  1  0  0  0  0
 21  6  1  0  0  0  0
 22 19  1  0  0  0  0
 23 18  1  0  0  0  0
 24 23  1  0  0  0  0
  6  4  1  0  0  0  0
 15 10  2  0  0  0  0
M  END
>  <Mol Weight>
330.3319

>  <Click ID>
CLK015_H03

>  <Plant Activity>
0

>  <Yeast Activity>
1

$$$$

  Marvin  06120816592D          

 15 15  0  0  0  0            999 V2000
   -0.3922    0.0724    0.0000 N   0  3  0  0  0  0  0  0  0  0  0  0
    0.3454   -0.3497    0.0000 C   0  0  0  0  0  0  0  0  0  0  0  0
    1.0745    0.0724    0.0000 C   0  0  0  0  0  0  0  0  0  0  0  0
    3.7606    1.5946    0.0000 C   0  0  0  0  0  0  0  0  0  0  0  0
    4.1827    2.3237    0.0000 C   0  0  0  0  0  0  0  0  0  0  0  0
   -0.3922    0.9167    0.0000 O   0  5  0  0  0  0  0  0  0  0  0  0
   -1.1213   -0.3497    0.0000 O   0  0  0  0  0  0  0  0  0  0  0  0
    1.8078   -0.3497    0.0000 C   0  0  0  0  0  0  0  0  0  0  0  0
    2.5198    0.0597    0.0000 C   0  0  0  0  0  0  0  0  0  0  0  0
    2.5241    0.8783    0.0000 O   0  0  0  0  0  0  0  0  0  0  0  0
    2.9335    1.5946    0.0000 C   0  0  0  0  0  0  0  0  0  0  0  0
    1.8078   -1.1640    0.0000 C   0  0  0  0  0  0  0  0  0  0  0  0
    3.2277   -0.3497    0.0000 C   0  0  0  0  0  0  0  0  0  0  0  0
    3.2277   -1.1640    0.0000 C   0  0  0  0  0  0  0  0  0  0  0  0
    2.5241   -1.5733    0.0000 C   0  0  0  0  0  0  0  0  0  0  0  0
  2  1  1  0  0  0  0
  3  2  2  0  0  0  0
  4 11  1  0  0  0  0
  5  4  3  0  0  0  0
  6  1  1  0  0  0  0
  7  1  2  0  0  0  0
  8  3  1  0  0  0  0
  9  8  2  0  0  0  0
 10  9  1  0  0  0  0
 11 10  1  0  0  0  0
 12  8  1  0  0  0  0
 13  9  1  0  0  0  0
 14 15  1  0  0  0  0
 15 12  2  0  0  0  0
 13 14  2  0  0  0  0
M  CHG  2   1   1   6  -1
M  END
>  <Mol Weight>
203.1941

>  <Click ID>
CLK015_F05

>  <Plant Activity>
1

>  <Yeast Activity>
1

>  <Bioactivity Commet>
could this be a mitochondrial poison. Looks like FCCP and a bit like 2,4-Dinitrophenol 

>  <Plant Comment>
germ inhibitor

>  <Yeast Comment>
very strong yeast hit

>  <Strength>
strong

$$$$

  Marvin  06120816592D          

 17 18  0  0  0  0            999 V2000
    2.9742   -1.7323    0.0000 C   0  0  0  0  0  0  0  0  0  0  0  0
    2.5480   -2.4380    0.0000 C   0  0  0  0  0  0  0  0  0  0  0  0
    3.0246    1.1227    0.0000 C   0  0  0  0  0  0  0  0  0  0  0  0
    2.6168    1.8514    0.0000 C   0  0  0  0  0  0  0  0  0  0  0  0
    2.5755   -1.0082    0.0000 C   0  0  0  0  0  0  0  0  0  0  0  0
    4.2069   -2.4655    0.0000 N   0  0  0  0  0  0  0  0  0  0  0  0
    3.7991   -1.7460    0.0000 C   0  0  0  0  0  0  0  0  0  0  0  0
    1.7323   -2.4243    0.0000 C   0  0  0  0  0  0  0  0  0  0  0  0
    1.7506   -0.9945    0.0000 C   0  0  0  0  0  0  0  0  0  0  0  0
    1.3336   -1.7094    0.0000 C   0  0  0  0  0  0  0  0  0  0  0  0
    5.0181   -2.5022    0.0000 O   0  0  0  0  0  0  0  0  0  0  0  0
    3.0017   -0.3025    0.0000 O   0  0  0  0  0  0  0  0  0  0  0  0
    2.5984    0.4216    0.0000 C   0  0  0  0  0  0  0  0  0  0  0  0
    2.9605   -3.1621    0.0000 C   0  0  0  0  0  0  0  0  0  0  0  0
    1.3107   -3.1392    0.0000 C   0  0  0  0  0  0  0  0  0  0  0  0
    2.5343   -3.8678    0.0000 C   0  0  0  0  0  0  0  0  0  0  0  0
    1.7094   -3.8541    0.0000 C   0  0  0  0  0  0  0  0  0  0  0  0
  2  1  2  0  0  0  0
  3 13  1  0  0  0  0
  4  3  3  0  0  0  0
  5  1  1  0  0  0  0
  6  7  2  0  0  0  0
  7  1  1  0  0  0  0
  8  2  1  0  0  0  0
  9  5  2  0  0  0  0
 10  9  1  0  0  0  0
 11  6  1  0  0  0  0
 12  5  1  0  0  0  0
 13 12  1  0  0  0  0
 14  2  1  0  0  0  0
 15  8  1  0  0  0  0
 16 14  2  0  0  0  0
 17 16  1  0  0  0  0
 10  8  2  0  0  0  0
 15 17  2  0  0  0  0
M  END
>  <Mol Weight>
225.2426

>  <Click ID>
CLK015_D07

>  <Plant Activity>
0

>  <Yeast Activity>
1

$$$$

  Marvin  06120816592D          

 23 24  0  0  0  0            999 V2000
    1.5667   -0.8167    0.0000 N   0  0  0  0  0  0  0  0  0  0  0  0
    1.8250   -1.6042    0.0000 C   0  0  0  0  0  0  0  0  0  0  0  0
    2.2375   -0.3292    0.0000 C   0  0  0  0  0  0  0  0  0  0  0  0
    2.9042   -0.8167    0.0000 C   0  0  0  0  0  0  0  0  0  0  0  0
    4.7917    1.1750    0.0000 C   0  0  0  0  0  0  0  0  0  0  0  0
    5.5875    1.4583    0.0000 N   0  3  0  0  0  0  0  0  0  0  0  0
    2.6500   -1.6042    0.0000 S   0  0  0  0  0  0  0  0  0  0  0  0
    4.1750    1.6833    0.0000 C   0  0  0  0  0  0  0  0  0  0  0  0
    3.6917   -0.5625    0.0000 C   0  0  0  0  0  0  0  0  0  0  0  0
    3.4000    1.4708    0.0000 C   0  0  0  0  0  0  0  0  0  0  0  0
    3.8625    0.2458    0.0000 C   0  0  0  0  0  0  0  0  0  0  0  0
    4.6417    0.4625    0.0000 C   0  0  0  0  0  0  0  0  0  0  0  0
    0.6125    0.2458    0.0000 C   0  0  0  0  0  0  0  0  0  0  0  0
    0.3917    1.0458    0.0000 C   0  0  0  0  0  0  0  0  0  0  0  0
    6.2125    0.9125    0.0000 O   0  5  0  0  0  0  0  0  0  0  0  0
    1.3375   -2.2667    0.0000 O   0  0  0  0  0  0  0  0  0  0  0  0
    5.7292    2.2708    0.0000 O   0  0  0  0  0  0  0  0  0  0  0  0
    3.2417    0.7583    0.0000 C   0  0  0  0  0  0  0  0  0  0  0  0
    2.2292    0.4958    0.0000 O   0  0  0  0  0  0  0  0  0  0  0  0
    0.7875   -0.5625    0.0000 C   0  0  0  0  0  0  0  0  0  0  0  0
    4.3500    2.4958    0.0000 O   0  0  0  0  0  0  0  0  0  0  0  0
    2.8042    2.0458    0.0000 O   0  0  0  0  0  0  0  0  0  0  0  0
    3.0000    2.8458    0.0000 C   0  0  0  0  0  0  0  0  0  0  0  0
  2  1  1  0  0  0  0
  3  1  1  0  0  0  0
  4  3  1  0  0  0  0
  5 12  2  0  0  0  0
  6  5  1  0  0  0  0
  7  2  1  0  0  0  0
  8 10  2  0  0  0  0
  9  4  2  0  0  0  0
 10 18  1  0  0  0  0
 11  9  1  0  0  0  0
 12 11  1  0  0  0  0
 13 20  1  0  0  0  0
 14 13  3  0  0  0  0
 15  6  1  0  0  0  0
 16  2  2  0  0  0  0
 17  6  2  0  0  0  0
 18 11  2  0  0  0  0
 19  3  2  0  0  0  0
 20  1  1  0  0  0  0
 21  8  1  0  0  0  0
 22 10  1  0  0  0  0
 23 22  1  0  0  0  0
  4  7  1  0  0  0  0
  8  5  1  0  0  0  0
M  CHG  2   6   1  15  -1
M  END
>  <Mol Weight>
334.304

>  <Click ID>
CLK014_G07

>  <Plant Activity>
0

>  <Yeast Activity>
1

$$$$

  Marvin  06120816592D          

 19 20  0  0  0  0            999 V2000
    1.5649   -0.8157    0.0000 N   0  0  0  0  0  0  0  0  0  0  0  0
    1.8229   -1.6023    0.0000 C   0  0  0  0  0  0  0  0  0  0  0  0
    2.2348   -0.3288    0.0000 C   0  0  0  0  0  0  0  0  0  0  0  0
    2.9008   -0.8157    0.0000 C   0  0  0  0  0  0  0  0  0  0  0  0
    2.6468   -1.6023    0.0000 S   0  0  0  0  0  0  0  0  0  0  0  0
    3.6873   -0.5619    0.0000 C   0  0  0  0  0  0  0  0  0  0  0  0
    0.6118    0.2455    0.0000 C   0  0  0  0  0  0  0  0  0  0  0  0
    0.3913    1.0445    0.0000 C   0  0  0  0  0  0  0  0  0  0  0  0
    4.7984    1.3067    0.0000 C   0  0  0  0  0  0  0  0  0  0  0  0
    1.3359   -2.2640    0.0000 O   0  0  0  0  0  0  0  0  0  0  0  0
    2.2265    0.4952    0.0000 O   0  0  0  0  0  0  0  0  0  0  0  0
    3.8579    0.2372    0.0000 C   0  0  0  0  0  0  0  0  0  0  0  0
    0.7865   -0.5619    0.0000 C   0  0  0  0  0  0  0  0  0  0  0  0
    4.1992    1.8561    0.0000 C   0  0  0  0  0  0  0  0  0  0  0  0
    4.6320    0.5077    0.0000 C   0  0  0  0  0  0  0  0  0  0  0  0
    3.4126    1.5981    0.0000 C   0  0  0  0  0  0  0  0  0  0  0  0
    5.5809    1.5482    0.0000 Br  0  0  0  0  0  0  0  0  0  0  0  0
    3.2462    0.7990    0.0000 C   0  0  0  0  0  0  0  0  0  0  0  0
    4.3698    2.6551    0.0000 O   0  0  0  0  0  0  0  0  0  0  0  0
  2  1  1  0  0  0  0
  3  1  1  0  0  0  0
  4  3  1  0  0  0  0
  5  2  1  0  0  0  0
  6  4  2  0  0  0  0
  7 13  1  0  0  0  0
  8  7  3  0  0  0  0
  9 15  1  0  0  0  0
 10  2  2  0  0  0  0
 11  3  2  0  0  0  0
 12  6  1  0  0  0  0
 13  1  1  0  0  0  0
 14 16  1  0  0  0  0
 15 12  2  0  0  0  0
 16 18  2  0  0  0  0
 17  9  1  0  0  0  0
 18 12  1  0  0  0  0
 19 14  1  0  0  0  0
  4  5  1  0  0  0  0
  9 14  2  0  0  0  0
M  END
>  <Mol Weight>
338.177

>  <Click ID>
CLK014_A06

>  <Plant Activity>
0

>  <Yeast Activity>
1

$$$$

  Marvin  06120816592D          

 18 19  0  0  0  0            999 V2000
    1.5551   -0.8107    0.0000 N   0  0  0  0  0  0  0  0  0  0  0  0
    1.8115   -1.5924    0.0000 C   0  0  0  0  0  0  0  0  0  0  0  0
    2.8828   -0.8107    0.0000 C   0  0  0  0  0  0  0  0  0  0  0  0
    2.2210   -0.3268    0.0000 C   0  0  0  0  0  0  0  0  0  0  0  0
    2.6304   -1.5924    0.0000 S   0  0  0  0  0  0  0  0  0  0  0  0
    3.6645   -0.5583    0.0000 C   0  0  0  0  0  0  0  0  0  0  0  0
    0.6080    0.2440    0.0000 C   0  0  0  0  0  0  0  0  0  0  0  0
    3.8382    0.2482    0.0000 C   0  0  0  0  0  0  0  0  0  0  0  0
    0.3888    1.0381    0.0000 C   0  0  0  0  0  0  0  0  0  0  0  0
    1.3276   -2.2500    0.0000 O   0  0  0  0  0  0  0  0  0  0  0  0
    2.2128    0.4921    0.0000 O   0  0  0  0  0  0  0  0  0  0  0  0
    0.7817   -0.5583    0.0000 C   0  0  0  0  0  0  0  0  0  0  0  0
    4.6281    0.5045    0.0000 C   0  0  0  0  0  0  0  0  0  0  0  0
    5.2402   -0.0496    0.0000 Cl  0  0  0  0  0  0  0  0  0  0  0  0
    3.2178    0.8023    0.0000 C   0  0  0  0  0  0  0  0  0  0  0  0
    4.8018    1.3152    0.0000 C   0  0  0  0  0  0  0  0  0  0  0  0
    3.3915    1.6088    0.0000 C   0  0  0  0  0  0  0  0  0  0  0  0
    4.1814    1.8694    0.0000 C   0  0  0  0  0  0  0  0  0  0  0  0
  2  1  1  0  0  0  0
  3  4  1  0  0  0  0
  4  1  1  0  0  0  0
  5  2  1  0  0  0  0
  6  3  2  0  0  0  0
  7 12  1  0  0  0  0
  8  6  1  0  0  0  0
  9  7  3  0  0  0  0
 10  2  2  0  0  0  0
 11  4  2  0  0  0  0
 12  1  1  0  0  0  0
 13  8  1  0  0  0  0
 14 13  1  0  0  0  0
 15  8  2  0  0  0  0
 16 13  2  0  0  0  0
 17 15  1  0  0  0  0
 18 17  2  0  0  0  0
  3  5  1  0  0  0  0
 18 16  1  0  0  0  0
M  END
>  <Mol Weight>
277.726

>  <Click ID>
CLK013_B05

>  <Plant Activity>
0

>  <Yeast Activity>
1

$$$$

  Marvin  06120816592D          

 21 22  0  0  0  0            999 V2000
    1.5642   -0.8154    0.0000 N   0  0  0  0  0  0  0  0  0  0  0  0
    1.8221   -1.6016    0.0000 C   0  0  0  0  0  0  0  0  0  0  0  0
    2.8996   -0.8154    0.0000 C   0  0  0  0  0  0  0  0  0  0  0  0
    2.2340   -0.3287    0.0000 C   0  0  0  0  0  0  0  0  0  0  0  0
    2.6458   -1.6016    0.0000 S   0  0  0  0  0  0  0  0  0  0  0  0
    2.8330    2.1716    0.0000 N   0  3  0  0  0  0  0  0  0  0  0  0
    3.6858   -0.5616    0.0000 C   0  0  0  0  0  0  0  0  0  0  0  0
    3.8688    0.2454    0.0000 C   0  0  0  0  0  0  0  0  0  0  0  0
    3.4362    1.6057    0.0000 C   0  0  0  0  0  0  0  0  0  0  0  0
    3.2614    0.8070    0.0000 C   0  0  0  0  0  0  0  0  0  0  0  0
    0.6115    0.2454    0.0000 C   0  0  0  0  0  0  0  0  0  0  0  0
    0.3911    1.0441    0.0000 C   0  0  0  0  0  0  0  0  0  0  0  0
    3.0119    2.9786    0.0000 O   0  5  0  0  0  0  0  0  0  0  0  0
    1.3354   -2.2631    0.0000 O   0  0  0  0  0  0  0  0  0  0  0  0
    2.0467    1.9302    0.0000 O   0  0  0  0  0  0  0  0  0  0  0  0
    2.2257    0.4950    0.0000 O   0  0  0  0  0  0  0  0  0  0  0  0
    4.6551    0.4950    0.0000 C   0  0  0  0  0  0  0  0  0  0  0  0
    0.7862   -0.5616    0.0000 C   0  0  0  0  0  0  0  0  0  0  0  0
    4.2182    1.8470    0.0000 C   0  0  0  0  0  0  0  0  0  0  0  0
    4.8298    1.2980    0.0000 C   0  0  0  0  0  0  0  0  0  0  0  0
    5.2665   -0.0749    0.0000 Cl  0  0  0  0  0  0  0  0  0  0  0  0
  2  1  1  0  0  0  0
  3  4  1  0  0  0  0
  4  1  1  0  0  0  0
  5  2  1  0  0  0  0
  6  9  1  0  0  0  0
  7  3  2  0  0  0  0
  8  7  1  0  0  0  0
  9 10  1  0  0  0  0
 10  8  2  0  0  0  0
 11 18  1  0  0  0  0
 12 11  3  0  0  0  0
 13  6  1  0  0  0  0
 14  2  2  0  0  0  0
 15  6  2  0  0  0  0
 16  4  2  0  0  0  0
 17  8  1  0  0  0  0
 18  1  1  0  0  0  0
 19 20  1  0  0  0  0
 20 17  2  0  0  0  0
 21 17  1  0  0  0  0
  5  3  1  0  0  0  0
 19  9  2  0  0  0  0
M  CHG  2   6   1  13  -1
M  END
>  <Mol Weight>
322.724

>  <Click ID>
CLK012_B06

>  <Plant Activity>
0

>  <Yeast Activity>
1

$$$$

  Marvin  06120816592D          

 22 23  0  0  0  0            999 V2000
    2.8465   -1.9101    0.0000 C   0  0  0  0  0  0  0  0  0  0  0  0
    2.8465   -0.2539    0.0000 C   0  0  0  0  0  0  0  0  0  0  0  0
    3.5623   -0.6742    0.0000 N   0  0  0  0  0  0  0  0  0  0  0  0
    2.1390   -0.6742    0.0000 N   0  0  0  0  0  0  0  0  0  0  0  0
    2.1390   -1.5023    0.0000 C   0  0  0  0  0  0  0  0  0  0  0  0
    3.5623   -1.5023    0.0000 C   0  0  0  0  0  0  0  0  0  0  0  0
    2.8465   -2.7383    0.0000 C   0  0  0  0  0  0  0  0  0  0  0  0
    2.8465    0.5743    0.0000 S   0  0  0  0  0  0  0  0  0  0  0  0
    6.3963   -5.6472    0.0000 C   0  0  0  0  0  0  0  0  0  0  0  0
    7.1037   -6.0717    0.0000 C   0  0  0  0  0  0  0  0  0  0  0  0
    4.2822   -1.9143    0.0000 O   0  0  0  0  0  0  0  0  0  0  0  0
    1.4149   -1.9143    0.0000 O   0  0  0  0  0  0  0  0  0  0  0  0
    4.2739   -0.2622    0.0000 C   0  0  0  0  0  0  0  0  0  0  0  0
    1.4232   -0.2622    0.0000 C   0  0  0  0  0  0  0  0  0  0  0  0
    3.5623   -3.1503    0.0000 C   0  0  0  0  0  0  0  0  0  0  0  0
    4.9855   -3.9826    0.0000 C   0  0  0  0  0  0  0  0  0  0  0  0
    3.5623   -3.9701    0.0000 C   0  0  0  0  0  0  0  0  0  0  0  0
    4.2822   -2.7383    0.0000 C   0  0  0  0  0  0  0  0  0  0  0  0
    4.9855   -3.1628    0.0000 C   0  0  0  0  0  0  0  0  0  0  0  0
    4.2739   -4.3946    0.0000 C   0  0  0  0  0  0  0  0  0  0  0  0
    5.6847   -5.2227    0.0000 C   0  0  0  0  0  0  0  0  0  0  0  0
    5.6929   -4.3987    0.0000 O   0  0  0  0  0  0  0  0  0  0  0  0
  2  3  1  0  0  0  0
  3  6  1  0  0  0  0
  4  5  1  0  0  0  0
  5  1  1  0  0  0  0
  6  1  1  0  0  0  0
  7  1  2  0  0  0  0
  8  2  2  0  0  0  0
  9 21  1  0  0  0  0
 10  9  3  0  0  0  0
 11  6  2  0  0  0  0
 12  5  2  0  0  0  0
 13  3  1  0  0  0  0
 14  4  1  0  0  0  0
 15  7  1  0  0  0  0
 16 19  2  0  0  0  0
 17 15  1  0  0  0  0
 18 15  2  0  0  0  0
 19 18  1  0  0  0  0
 20 17  2  0  0  0  0
 21 22  1  0  0  0  0
 22 16  1  0  0  0  0
  4  2  1  0  0  0  0
 20 16  1  0  0  0  0
M  END
>  <Mol Weight>
314.359

>  <Click ID>
CLK011_C05

>  <Plant Activity>
0

>  <Yeast Activity>
1

$$$$

  Marvin  06120816592D          

 24 25  0  0  0  0            999 V2000
    1.9491   -1.6402    0.0000 C   0  0  0  0  0  0  0  0  0  0  0  0
    1.9491    0.1590    0.0000 C   0  0  0  0  0  0  0  0  0  0  0  0
    1.1631   -1.1904    0.0000 C   0  0  0  0  0  0  0  0  0  0  0  0
    2.7260   -1.1904    0.0000 C   0  0  0  0  0  0  0  0  0  0  0  0
    2.7260   -0.2908    0.0000 O   0  0  0  0  0  0  0  0  0  0  0  0
    1.1631   -0.2908    0.0000 O   0  0  0  0  0  0  0  0  0  0  0  0
    1.9491   -2.5398    0.0000 C   0  0  0  0  0  0  0  0  0  0  0  0
    2.7170    0.6088    0.0000 C   0  0  0  0  0  0  0  0  0  0  0  0
   -1.6220   -4.7433    0.0000 C   0  0  0  0  0  0  0  0  0  0  0  0
   -2.3398   -4.4980    0.0000 C   0  0  0  0  0  0  0  0  0  0  0  0
    0.3862   -1.6402    0.0000 O   0  0  0  0  0  0  0  0  0  0  0  0
    3.5030   -1.6402    0.0000 O   0  0  0  0  0  0  0  0  0  0  0  0
    1.3812   -3.0305    0.0000 C   0  0  0  0  0  0  0  0  0  0  0  0
    1.1631    0.6088    0.0000 C   0  0  0  0  0  0  0  0  0  0  0  0
    0.2453   -4.0119    0.0000 C   0  0  0  0  0  0  0  0  0  0  0  0
    0.6725   -2.7806    0.0000 C   0  0  0  0  0  0  0  0  0  0  0  0
    1.5175   -3.7619    0.0000 C   0  0  0  0  0  0  0  0  0  0  0  0
    0.1000   -3.2713    0.0000 C   0  0  0  0  0  0  0  0  0  0  0  0
    0.9541   -4.2526    0.0000 C   0  0  0  0  0  0  0  0  0  0  0  0
   -1.0449   -4.2526    0.0000 C   0  0  0  0  0  0  0  0  0  0  0  0
   -0.3271   -4.5026    0.0000 O   0  0  0  0  0  0  0  0  0  0  0  0
    1.8447    0.8405    0.0000 C   0  0  0  0  0  0  0  0  0  0  0  0
    2.7124    1.5084    0.0000 C   0  0  0  0  0  0  0  0  0  0  0  0
    3.5030    0.1726    0.0000 C   0  0  0  0  0  0  0  0  0  0  0  0
  2  5  1  0  0  0  0
  3  1  1  0  0  0  0
  4  1  1  0  0  0  0
  5  4  1  0  0  0  0
  6  3  1  0  0  0  0
  7  1  2  0  0  0  0
  8  2  1  0  0  0  0
  9 20  1  0  0  0  0
 10  9  3  0  0  0  0
 11  3  2  0  0  0  0
 12  4  2  0  0  0  0
 13  7  1  0  0  0  0
 14  2  1  0  0  0  0
 15 19  1  0  0  0  0
 16 13  2  0  0  0  0
 17 13  1  0  0  0  0
 18 16  1  0  0  0  0
 19 17  2  0  0  0  0
 20 21  1  0  0  0  0
 21 15  1  0  0  0  0
 22  8  1  0  0  0  0
 23  8  1  0  0  0  0
 24  8  1  0  0  0  0
  6  2  1  0  0  0  0
 18 15  2  0  0  0  0
M  END
>  <Mol Weight>
328.3591

>  <Click ID>
CLK011_B06

>  <Plant Activity>
0

>  <Yeast Activity>
1

$$$$

  Marvin  06120816592D          

 20 21  0  0  0  0            999 V2000
    2.0522   -0.1970    0.0000 C   0  0  0  0  0  0  0  0  0  0  0  0
    3.4814   -0.1970    0.0000 N   0  0  0  0  0  0  0  0  0  0  0  0
    2.7668   -1.4338    0.0000 N   0  0  0  0  0  0  0  0  0  0  0  0
    2.7668    0.2153    0.0000 C   0  0  0  0  0  0  0  0  0  0  0  0
    2.0522   -1.0216    0.0000 C   0  0  0  0  0  0  0  0  0  0  0  0
    3.4814   -1.0216    0.0000 C   0  0  0  0  0  0  0  0  0  0  0  0
    1.3376    0.2153    0.0000 C   0  0  0  0  0  0  0  0  0  0  0  0
   -2.2354   -2.6706    0.0000 C   0  0  0  0  0  0  0  0  0  0  0  0
   -2.2354   -3.4952    0.0000 C   0  0  0  0  0  0  0  0  0  0  0  0
    4.1960   -1.4338    0.0000 S   0  0  0  0  0  0  0  0  0  0  0  0
    2.7668    1.0398    0.0000 O   0  0  0  0  0  0  0  0  0  0  0  0
    1.3376   -1.4338    0.0000 O   0  0  0  0  0  0  0  0  0  0  0  0
    0.6230   -0.1970    0.0000 C   0  0  0  0  0  0  0  0  0  0  0  0
   -0.8062   -1.0216    0.0000 C   0  0  0  0  0  0  0  0  0  0  0  0
   -0.0916    0.2153    0.0000 C   0  0  0  0  0  0  0  0  0  0  0  0
    0.6230   -1.0216    0.0000 C   0  0  0  0  0  0  0  0  0  0  0  0
   -0.8062   -0.1970    0.0000 C   0  0  0  0  0  0  0  0  0  0  0  0
   -0.0916   -1.4338    0.0000 C   0  0  0  0  0  0  0  0  0  0  0  0
   -1.5208   -2.2584    0.0000 C   0  0  0  0  0  0  0  0  0  0  0  0
   -1.5208   -1.4338    0.0000 O   0  0  0  0  0  0  0  0  0  0  0  0
  2  4  1  0  0  0  0
  3  5  1  0  0  0  0
  4  1  1  0  0  0  0
  5  1  1  0  0  0  0
  6  3  1  0  0  0  0
  7  1  2  0  0  0  0
  8 19  1  0  0  0  0
  9  8  3  0  0  0  0
 10  6  2  0  0  0  0
 11  4  2  0  0  0  0
 12  5  2  0  0  0  0
 13  7  1  0  0  0  0
 14 18  2  0  0  0  0
 15 13  1  0  0  0  0
 16 13  2  0  0  0  0
 17 15  2  0  0  0  0
 18 16  1  0  0  0  0
 19 20  1  0  0  0  0
 20 14  1  0  0  0  0
  2  6  1  0  0  0  0
 17 14  1  0  0  0  0
M  END
>  <Mol Weight>
286.306

>  <Click ID>
CLK011_A09

>  <Plant Activity>
0

>  <Yeast Activity>
1

$$$$

  Marvin  06120816592D          

 26 28  0  0  0  0            999 V2000
    1.5484   -0.7578    0.0000 N   0  0  0  0  0  0  0  0  0  0  0  0
    2.0481   -0.1423    0.0000 C   0  0  0  0  0  0  0  0  0  0  0  0
    2.8224   -0.4367    0.0000 N   0  0  0  0  0  0  0  0  0  0  0  0
   -2.8455    1.7338    0.0000 N   0  3  0  0  0  0  0  0  0  0  0  0
    1.9853   -1.4591    0.0000 C   0  0  0  0  0  0  0  0  0  0  0  0
    0.7181   -0.6982    0.0000 C   0  0  0  0  0  0  0  0  0  0  0  0
    2.7793   -1.2441    0.0000 C   0  0  0  0  0  0  0  0  0  0  0  0
    0.3606    0.0496    0.0000 C   0  0  0  0  0  0  0  0  0  0  0  0
   -2.0216    1.6675    0.0000 C   0  0  0  0  0  0  0  0  0  0  0  0
    2.1871    2.0415    0.0000 C   0  0  0  0  0  0  0  0  0  0  0  0
    1.9687    2.8356    0.0000 C   0  0  0  0  0  0  0  0  0  0  0  0
   -3.2028    2.4683    0.0000 O   0  5  0  0  0  0  0  0  0  0  0  0
   -0.4764    0.1158    0.0000 C   0  0  0  0  0  0  0  0  0  0  0  0
   -3.3021    1.0423    0.0000 O   0  0  0  0  0  0  0  0  0  0  0  0
    1.8298    0.6518    0.0000 S   0  0  0  0  0  0  0  0  0  0  0  0
    0.2515   -1.3896    0.0000 O   0  0  0  0  0  0  0  0  0  0  0  0
   -1.6642    0.9232    0.0000 C   0  0  0  0  0  0  0  0  0  0  0  0
   -0.8338    0.8603    0.0000 C   0  0  0  0  0  0  0  0  0  0  0  0
    2.4055    1.2474    0.0000 C   0  0  0  0  0  0  0  0  0  0  0  0
    1.7702   -2.2367    0.0000 C   0  0  0  0  0  0  0  0  0  0  0  0
    3.3584   -1.8298    0.0000 C   0  0  0  0  0  0  0  0  0  0  0  0
   -1.5484    2.3392    0.0000 C   0  0  0  0  0  0  0  0  0  0  0  0
   -0.7246    2.2731    0.0000 C   0  0  0  0  0  0  0  0  0  0  0  0
   -0.3540    1.5253    0.0000 C   0  0  0  0  0  0  0  0  0  0  0  0
    2.3426   -2.8323    0.0000 C   0  0  0  0  0  0  0  0  0  0  0  0
    3.1400   -2.6205    0.0000 C   0  0  0  0  0  0  0  0  0  0  0  0
  2  1  1  0  0  0  0
  3  2  2  0  0  0  0
  4  9  1  0  0  0  0
  5  1  1  0  0  0  0
  6  1  1  0  0  0  0
  7  5  1  0  0  0  0
  8  6  1  0  0  0  0
  9 17  2  0  0  0  0
 10 19  1  0  0  0  0
 11 10  3  0  0  0  0
 12  4  1  0  0  0  0
 13  8  2  0  0  0  0
 14  4  2  0  0  0  0
 15  2  1  0  0  0  0
 16  6  2  0  0  0  0
 17 18  1  0  0  0  0
 18 13  1  0  0  0  0
 19 15  1  0  0  0  0
 20  5  2  0  0  0  0
 21  7  2  0  0  0  0
 22 23  2  0  0  0  0
 23 24  1  0  0  0  0
 24 18  2  0  0  0  0
 25 20  1  0  0  0  0
 26 25  2  0  0  0  0
  7  3  1  0  0  0  0
 26 21  1  0  0  0  0
 22  9  1  0  0  0  0
M  CHG  2   4   1  12  -1
M  END
>  <Mol Weight>
363.39

>  <Click ID>
CLK010_H03

>  <Plant Activity>
0

>  <Yeast Activity>
1

$$$$

  Marvin  06120816592D          

 25 27  0  0  0  0            999 V2000
    1.7984   -1.5134    0.0000 C   0  0  0  0  0  0  0  0  0  0  0  0
    2.5153   -1.0984    0.0000 C   0  0  0  0  0  0  0  0  0  0  0  0
    1.0732   -1.0984    0.0000 C   0  0  0  0  0  0  0  0  0  0  0  0
    1.0732   -0.2683    0.0000 O   0  0  0  0  0  0  0  0  0  0  0  0
    2.5153   -0.2683    0.0000 O   0  0  0  0  0  0  0  0  0  0  0  0
    1.7984    0.1467    0.0000 C   0  0  0  0  0  0  0  0  0  0  0  0
    1.7984   -2.3435    0.0000 C   0  0  0  0  0  0  0  0  0  0  0  0
   -1.4966   -4.3766    0.0000 C   0  0  0  0  0  0  0  0  0  0  0  0
   -2.1589   -4.1502    0.0000 C   0  0  0  0  0  0  0  0  0  0  0  0
    3.2322   -1.5134    0.0000 O   0  0  0  0  0  0  0  0  0  0  0  0
    0.3564   -1.5134    0.0000 O   0  0  0  0  0  0  0  0  0  0  0  0
    1.7984    0.9767    0.0000 C   0  0  0  0  0  0  0  0  0  0  0  0
    1.2744   -2.7962    0.0000 C   0  0  0  0  0  0  0  0  0  0  0  0
    0.2264   -3.7017    0.0000 C   0  0  0  0  0  0  0  0  0  0  0  0
    0.6205   -2.5656    0.0000 C   0  0  0  0  0  0  0  0  0  0  0  0
    1.4002   -3.4711    0.0000 C   0  0  0  0  0  0  0  0  0  0  0  0
    0.0923   -3.0184    0.0000 C   0  0  0  0  0  0  0  0  0  0  0  0
    0.8804   -3.9239    0.0000 C   0  0  0  0  0  0  0  0  0  0  0  0
   -0.9642   -3.9239    0.0000 C   0  0  0  0  0  0  0  0  0  0  0  0
   -0.3018   -4.1545    0.0000 O   0  0  0  0  0  0  0  0  0  0  0  0
    1.0816    1.3834    0.0000 C   0  0  0  0  0  0  0  0  0  0  0  0
    2.5195    1.3834    0.0000 C   0  0  0  0  0  0  0  0  0  0  0  0
    1.0816    2.2218    0.0000 C   0  0  0  0  0  0  0  0  0  0  0  0
    2.5195    2.2092    0.0000 C   0  0  0  0  0  0  0  0  0  0  0  0
    1.8027    2.6285    0.0000 C   0  0  0  0  0  0  0  0  0  0  0  0
  2  1  1  0  0  0  0
  3  1  1  0  0  0  0
  4  3  1  0  0  0  0
  5  2  1  0  0  0  0
  6  4  1  0  0  0  0
  7  1  2  0  0  0  0
  8 19  1  0  0  0  0
  9  8  3  0  0  0  0
 10  2  2  0  0  0  0
 11  3  2  0  0  0  0
 12  6  1  0  0  0  0
 13  7  1  0  0  0  0
 14 18  1  0  0  0  0
 15 13  2  0  0  0  0
 16 13  1  0  0  0  0
 17 15  1  0  0  0  0
 18 16  2  0  0  0  0
 19 20  1  0  0  0  0
 20 14  1  0  0  0  0
 21 12  1  0  0  0  0
 22 12  2  0  0  0  0
 23 21  2  0  0  0  0
 24 22  1  0  0  0  0
 25 24  2  0  0  0  0
  5  6  1  0  0  0  0
 17 14  2  0  0  0  0
 23 25  1  0  0  0  0
M  END
>  <Mol Weight>
334.3222

>  <Click ID>
CLK010_A10

>  <Plant Activity>
0

>  <Yeast Activity>
1

$$$$

  Marvin  06120816592D          

 28 29  0  0  0  0            999 V2000
   -4.5890    0.3046    0.0000 C   0  0  0  0  0  0  0  0  0  0  0  0
    0.5963   -0.1185    0.0000 C   0  0  0  0  0  0  0  0  0  0  0  0
   -3.1087    0.3046    0.0000 N   0  0  0  0  0  0  0  0  0  0  0  0
   -0.8966   -0.1185    0.0000 N   0  0  0  0  0  0  0  0  0  0  0  0
   -5.3291   -0.1185    0.0000 C   0  0  0  0  0  0  0  0  0  0  0  0
    1.3493    0.3046    0.0000 C   0  0  0  0  0  0  0  0  0  0  0  0
   -3.0790    0.9981    0.0000 C   0  0  0  0  0  0  0  0  0  0  0  0
   -0.8966   -0.8671    0.0000 C   0  0  0  0  0  0  0  0  0  0  0  0
   -2.3685   -0.1185    0.0000 C   0  0  0  0  0  0  0  0  0  0  0  0
   -1.6369    0.3046    0.0000 C   0  0  0  0  0  0  0  0  0  0  0  0
   -3.8531   -0.1185    0.0000 C   0  0  0  0  0  0  0  0  0  0  0  0
   -0.1480    0.3046    0.0000 C   0  0  0  0  0  0  0  0  0  0  0  0
   -3.7685    1.4211    0.0000 C   0  0  0  0  0  0  0  0  0  0  0  0
   -0.1861   -1.2731    0.0000 C   0  0  0  0  0  0  0  0  0  0  0  0
    0.6471    1.3704    0.0000 O   0  0  0  0  0  0  0  0  0  0  0  0
   -4.5128   -1.3493    0.0000 O   0  0  0  0  0  0  0  0  0  0  0  0
   -3.8531   -0.8671    0.0000 C   0  0  0  0  0  0  0  0  0  0  0  0
   -0.1480    1.0489    0.0000 C   0  0  0  0  0  0  0  0  0  0  0  0
   -4.4790    1.0362    0.0000 C   0  0  0  0  0  0  0  0  0  0  0  0
   -0.1861   -2.0979    0.0000 C   0  0  0  0  0  0  0  0  0  0  0  0
   -3.7516    2.2459    0.0000 C   0  0  0  0  0  0  0  0  0  0  0  0
    0.5118   -0.8628    0.0000 C   0  0  0  0  0  0  0  0  0  0  0  0
    1.2477   -1.2731    0.0000 C   0  0  0  0  0  0  0  0  0  0  0  0
    0.5457   -2.5039    0.0000 C   0  0  0  0  0  0  0  0  0  0  0  0
   -5.1896    1.4676    0.0000 C   0  0  0  0  0  0  0  0  0  0  0  0
   -4.4367    2.6730    0.0000 C   0  0  0  0  0  0  0  0  0  0  0  0
   -5.1726    2.2797    0.0000 C   0  0  0  0  0  0  0  0  0  0  0  0
    1.2562   -2.0809    0.0000 C   0  0  0  0  0  0  0  0  0  0  0  0
  2 12  1  0  0  0  0
  3 11  1  0  0  0  0
  4 10  1  0  0  0  0
  5  1  3  0  0  0  0
  6  2  3  0  0  0  0
  7  3  1  0  0  0  0
  8  4  1  0  0  0  0
  9  3  1  0  0  0  0
 10  9  1  0  0  0  0
 11  1  1  0  0  0  0
 12  4  1  0  0  0  0
 13  7  1  0  0  0  0
 14  8  1  0  0  0  0
 15 18  1  0  0  0  0
 16 17  1  0  0  0  0
 17 11  1  0  0  0  0
 18 12  1  0  0  0  0
 19 13  1  0  0  0  0
 20 14  2  0  0  0  0
 21 13  2  0  0  0  0
 22 14  1  0  0  0  0
 23 22  2  0  0  0  0
 24 20  1  0  0  0  0
 25 19  2  0  0  0  0
 26 21  1  0  0  0  0
 27 26  2  0  0  0  0
 28 23  1  0  0  0  0
 25 27  1  0  0  0  0
 28 24  2  0  0  0  0
M  END
>  <Mol Weight>
376.4913

>  <Click ID>
CLK009_A03

>  <Plant Activity>
0

>  <Yeast Activity>
1

$$$$

  Marvin  06120816592D          

 21 23  0  0  0  0            999 V2000
    5.4875   -6.7458    0.0000 C   0  0  0  0  0  0  0  0  0  0  0  0
    5.0042   -6.0833    0.0000 N   0  0  0  0  0  0  0  0  0  0  0  0
    5.0042   -7.4167    0.0000 N   0  0  0  0  0  0  0  0  0  0  0  0
    4.2208   -7.1625    0.0000 C   0  0  0  0  0  0  0  0  0  0  0  0
    4.2208   -6.3375    0.0000 C   0  0  0  0  0  0  0  0  0  0  0  0
    6.3125   -6.7417    0.0000 C   0  0  0  0  0  0  0  0  0  0  0  0
    4.7042   -8.8125    0.0000 C   0  0  0  0  0  0  0  0  0  0  0  0
    4.1500   -9.4208    0.0000 C   0  0  0  0  0  0  0  0  0  0  0  0
    6.7250   -6.0292    0.0000 C   0  0  0  0  0  0  0  0  0  0  0  0
    5.2583   -8.2042    0.0000 C   0  0  0  0  0  0  0  0  0  0  0  0
    7.5542   -6.0292    0.0000 C   0  0  0  0  0  0  0  0  0  0  0  0
    9.2083   -6.0292    0.0000 C   0  0  0  0  0  0  0  0  0  0  0  0
   10.0292   -6.0292    0.0000 Cl  0  0  0  0  0  0  0  0  0  0  0  0
    7.9667   -5.3125    0.0000 C   0  0  0  0  0  0  0  0  0  0  0  0
    7.9667   -6.7417    0.0000 C   0  0  0  0  0  0  0  0  0  0  0  0
    8.7958   -5.3125    0.0000 C   0  0  0  0  0  0  0  0  0  0  0  0
    8.7958   -6.7417    0.0000 C   0  0  0  0  0  0  0  0  0  0  0  0
    3.5083   -7.5750    0.0000 C   0  0  0  0  0  0  0  0  0  0  0  0
    3.5083   -5.9250    0.0000 C   0  0  0  0  0  0  0  0  0  0  0  0
    2.7917   -7.1625    0.0000 C   0  0  0  0  0  0  0  0  0  0  0  0
    2.7917   -6.3375    0.0000 C   0  0  0  0  0  0  0  0  0  0  0  0
  2  1  2  0  0  0  0
  3  1  1  0  0  0  0
  4  3  1  0  0  0  0
  5  2  1  0  0  0  0
  6  1  1  0  0  0  0
  7 10  1  0  0  0  0
  8  7  3  0  0  0  0
  9  6  2  0  0  0  0
 10  3  1  0  0  0  0
 11  9  1  0  0  0  0
 12 17  2  0  0  0  0
 13 12  1  0  0  0  0
 14 11  1  0  0  0  0
 15 11  2  0  0  0  0
 16 14  2  0  0  0  0
 17 15  1  0  0  0  0
 18  4  2  0  0  0  0
 19  5  2  0  0  0  0
 20 18  1  0  0  0  0
 21 19  1  0  0  0  0
  5  4  1  0  0  0  0
 21 20  2  0  0  0  0
 12 16  1  0  0  0  0
M  END
>  <Mol Weight>
292.762

>  <Click ID>
CLK006_F04

>  <Plant Activity>
0

>  <Yeast Activity>
1

$$$$

  Marvin  06120816592D          

 26 28  0  0  0  0            999 V2000
   -1.2188    1.0094    0.0000 C   0  0  0  0  0  0  0  0  0  0  0  0
   -0.8227    1.7217    0.0000 C   0  0  0  0  0  0  0  0  0  0  0  0
   -2.0264    0.9066    0.0000 N   0  0  0  0  0  0  0  0  0  0  0  0
   -0.8761    0.2704    0.0000 N   0  0  0  0  0  0  0  0  0  0  0  0
   -0.0190    1.7369    0.0000 C   0  0  0  0  0  0  0  0  0  0  0  0
   -1.3027    2.5101    0.0000 C   0  0  0  0  0  0  0  0  0  0  0  0
   -2.1788    0.1105    0.0000 C   0  0  0  0  0  0  0  0  0  0  0  0
   -1.4665   -0.2819    0.0000 C   0  0  0  0  0  0  0  0  0  0  0  0
    0.4114    1.0208    0.0000 C   0  0  0  0  0  0  0  0  0  0  0  0
   -1.7864    3.2986    0.0000 N   0  0  0  0  0  0  0  0  0  0  0  0
   -2.8758   -0.3085    0.0000 C   0  0  0  0  0  0  0  0  0  0  0  0
   -1.4550   -1.0970    0.0000 C   0  0  0  0  0  0  0  0  0  0  0  0
    1.2380    1.0360    0.0000 C   0  0  0  0  0  0  0  0  0  0  0  0
    0.0076    0.3009    0.0000 C   0  0  0  0  0  0  0  0  0  0  0  0
   -2.8644   -1.1236    0.0000 C   0  0  0  0  0  0  0  0  0  0  0  0
   -2.1598   -1.5084    0.0000 C   0  0  0  0  0  0  0  0  0  0  0  0
    1.6646    0.3276    0.0000 C   0  0  0  0  0  0  0  0  0  0  0  0
    0.4381   -0.4152    0.0000 C   0  0  0  0  0  0  0  0  0  0  0  0
    1.2646   -0.4000    0.0000 C   0  0  0  0  0  0  0  0  0  0  0  0
    2.4949    0.3390    0.0000 O   0  0  0  0  0  0  0  0  0  0  0  0
    1.6950   -1.1084    0.0000 O   0  0  0  0  0  0  0  0  0  0  0  0
    2.9215   -0.3619    0.0000 C   0  0  0  0  0  0  0  0  0  0  0  0
    1.2951   -1.8360    0.0000 C   0  0  0  0  0  0  0  0  0  0  0  0
    3.7520   -0.3504    0.0000 C   0  0  0  0  0  0  0  0  0  0  0  0
    1.7179   -2.5444    0.0000 C   0  0  0  0  0  0  0  0  0  0  0  0
    2.1445   -3.2491    0.0000 C   0  0  0  0  0  0  0  0  0  0  0  0
  1  2  1  0  0  0  0
  1  3  1  0  0  0  0
  1  4  2  0  0  0  0
  2  5  2  0  0  0  0
  2  6  1  0  0  0  0
  3  7  1  0  0  0  0
  4  8  1  0  0  0  0
  5  9  1  0  0  0  0
  6 10  3  0  0  0  0
  7 11  1  0  0  0  0
  8 12  1  0  0  0  0
  9 13  2  0  0  0  0
  9 14  1  0  0  0  0
 11 15  2  0  0  0  0
 12 16  2  0  0  0  0
 13 17  1  0  0  0  0
 14 18  2  0  0  0  0
 17 19  2  0  0  0  0
 17 20  1  0  0  0  0
 19 21  1  0  0  0  0
 20 22  1  0  0  0  0
 21 23  1  0  0  0  0
 22 24  1  0  0  0  0
 23 25  1  0  0  0  0
 25 26  3  0  0  0  0
  7  8  2  0  0  0  0
 15 16  1  0  0  0  0
 18 19  1  0  0  0  0
M  END
>  <Mol Weight>
343.3786

>  <Click ID>
CLK005_C07

>  <Plant Activity>
1

>  <Yeast Activity>
1

>  <Bioactivity Commet>
is overlap coincidence?

>  <Plant Comment>
stain root

>  <Yeast Comment>
very strong

>  <Strength>
strong

$$$$

  Marvin  06120816592D          

 22 23  0  0  0  0            999 V2000
    5.6177   -6.6998    0.0000 C   0  0  0  0  0  0  0  0  0  0  0  0
    5.9784   -5.9578    0.0000 C   0  0  0  0  0  0  0  0  0  0  0  0
    6.0448   -7.4047    0.0000 N   0  0  0  0  0  0  0  0  0  0  0  0
    6.8615   -7.4047    0.0000 C   0  0  0  0  0  0  0  0  0  0  0  0
    4.8010   -6.7123    0.0000 C   0  0  0  0  0  0  0  0  0  0  0  0
    5.5182   -5.2695    0.0000 C   0  0  0  0  0  0  0  0  0  0  0  0
    3.1301   -5.3110    0.0000 C   0  0  0  0  0  0  0  0  0  0  0  0
    4.7057   -5.1202    0.0000 N   0  0  0  0  0  0  0  0  0  0  0  0
    2.7115   -4.5937    0.0000 C   0  0  0  0  0  0  0  0  0  0  0  0
    7.2637   -6.6833    0.0000 O   0  0  0  0  0  0  0  0  0  0  0  0
    4.5978   -4.2994    0.0000 C   0  0  0  0  0  0  0  0  0  0  0  0
    7.2803   -8.1220    0.0000 C   0  0  0  0  0  0  0  0  0  0  0  0
    5.9080   -4.5481    0.0000 C   0  0  0  0  0  0  0  0  0  0  0  0
    4.3988   -7.4296    0.0000 O   0  0  0  0  0  0  0  0  0  0  0  0
    5.3400   -3.9510    0.0000 C   0  0  0  0  0  0  0  0  0  0  0  0
    4.3782   -6.0033    0.0000 N   0  0  0  0  0  0  0  0  0  0  0  0
    3.5531   -6.0117    0.0000 C   0  0  0  0  0  0  0  0  0  0  0  0
    6.8906   -8.8516    0.0000 C   0  0  0  0  0  0  0  0  0  0  0  0
    8.1013   -8.0888    0.0000 C   0  0  0  0  0  0  0  0  0  0  0  0
    8.5406   -8.7893    0.0000 C   0  0  0  0  0  0  0  0  0  0  0  0
    7.3177   -9.5356    0.0000 C   0  0  0  0  0  0  0  0  0  0  0  0
    8.1551   -9.5191    0.0000 C   0  0  0  0  0  0  0  0  0  0  0  0
  2  1  2  0  0  0  0
  3  1  1  0  0  0  0
  4  3  1  0  0  0  0
  5  1  1  0  0  0  0
  6  2  1  0  0  0  0
  7 17  1  0  0  0  0
  8  6  1  0  0  0  0
  9  7  3  0  0  0  0
 10  4  2  0  0  0  0
 11  8  1  0  0  0  0
 12  4  1  0  0  0  0
 13  6  2  0  0  0  0
 14  5  2  0  0  0  0
 15 13  1  0  0  0  0
 16  5  1  0  0  0  0
 17 16  1  0  0  0  0
 18 12  2  0  0  0  0
 19 12  1  0  0  0  0
 20 19  2  0  0  0  0
 21 18  1  0  0  0  0
 22 20  1  0  0  0  0
 11 15  2  0  0  0  0
 21 22  2  0  0  0  0
M  END
>  <Mol Weight>
293.3199

>  <Click ID>
CLK004_H03

>  <Plant Activity>
0

>  <Yeast Activity>
1

$$$$

  Marvin  06120816592D          

 25 27  0  0  0  0            999 V2000
   -0.9031    0.0797    0.0000 C   0  0  0  0  0  0  0  0  0  0  0  0
   -1.7151   -0.0645    0.0000 C   0  0  0  0  0  0  0  0  0  0  0  0
   -0.5085   -0.6489    0.0000 C   0  0  0  0  0  0  0  0  0  0  0  0
    0.0341    0.7058    0.0000 C   0  0  0  0  0  0  0  0  0  0  0  0
   -1.1649    1.0245    0.0000 O   0  0  0  0  0  0  0  0  0  0  0  0
   -1.8252   -0.8727    0.0000 C   0  0  0  0  0  0  0  0  0  0  0  0
   -2.3602    0.4515    0.0000 C   0  0  0  0  0  0  0  0  0  0  0  0
   -1.0852   -1.2408    0.0000 N   0  0  0  0  0  0  0  0  0  0  0  0
    0.3073   -0.7627    0.0000 O   0  0  0  0  0  0  0  0  0  0  0  0
    0.8272    0.2960    0.0000 C   0  0  0  0  0  0  0  0  0  0  0  0
   -2.5955   -1.1877    0.0000 C   0  0  0  0  0  0  0  0  0  0  0  0
   -3.1229    0.1442    0.0000 C   0  0  0  0  0  0  0  0  0  0  0  0
   -0.9448   -2.0528    0.0000 C   0  0  0  0  0  0  0  0  0  0  0  0
    1.5178    0.7475    0.0000 C   0  0  0  0  0  0  0  0  0  0  0  0
    0.8576   -0.3946    0.0000 O   0  0  0  0  0  0  0  0  0  0  0  0
   -3.2405   -0.6754    0.0000 C   0  0  0  0  0  0  0  0  0  0  0  0
   -1.5786   -2.5803    0.0000 C   0  0  0  0  0  0  0  0  0  0  0  0
    1.4874    1.5634    0.0000 C   0  0  0  0  0  0  0  0  0  0  0  0
    2.2464    0.3642    0.0000 C   0  0  0  0  0  0  0  0  0  0  0  0
   -2.2084   -3.1116    0.0000 C   0  0  0  0  0  0  0  0  0  0  0  0
    2.1781    2.0149    0.0000 C   0  0  0  0  0  0  0  0  0  0  0  0
    2.9484    0.8044    0.0000 C   0  0  0  0  0  0  0  0  0  0  0  0
    2.9067    1.6279    0.0000 C   0  0  0  0  0  0  0  0  0  0  0  0
    3.6086    2.0756    0.0000 C   0  0  0  0  0  0  0  0  0  0  0  0
    4.3372    1.6962    0.0000 C   0  0  0  0  0  0  0  0  0  0  0  0
  1  2  1  0  0  0  0
  1  3  1  0  0  0  0
  1  4  1  0  0  0  0
  1  5  1  0  0  0  0
  2  6  2  0  0  0  0
  2  7  1  0  0  0  0
  3  8  1  0  0  0  0
  3  9  2  0  0  0  0
  4 10  1  0  0  0  0
  6 11  1  0  0  0  0
  7 12  2  0  0  0  0
  8 13  1  0  0  0  0
 10 14  1  0  0  0  0
 10 15  2  0  0  0  0
 11 16  2  0  0  0  0
 13 17  1  0  0  0  0
 14 18  2  0  0  0  0
 14 19  1  0  0  0  0
 17 20  3  0  0  0  0
 18 21  1  0  0  0  0
 19 22  2  0  0  0  0
 21 23  2  0  0  0  0
 23 24  1  0  0  0  0
 24 25  1  0  0  0  0
  6  8  1  0  0  0  0
 12 16  1  0  0  0  0
 22 23  1  0  0  0  0
M  END
>  <Mol Weight>
333.3805

>  <Click ID>
CLK004_D06

>  <Plant Activity>
0

>  <Yeast Activity>
1

$$$$

  Marvin  06120816592D          

 24 25  0  0  0  0            999 V2000
    7.5506  -12.2816    0.0000 N   0  0  0  0  0  0  0  0  0  0  0  0
    7.3722  -13.0860    0.0000 C   0  0  0  0  0  0  0  0  0  0  0  0
    3.7981  -11.8338    0.0000 C   0  0  0  0  0  0  0  0  0  0  0  0
    8.3674  -12.2028    0.0000 C   0  0  0  0  0  0  0  0  0  0  0  0
    3.7981  -11.0128    0.0000 C   0  0  0  0  0  0  0  0  0  0  0  0
    6.6550  -13.4923    0.0000 N   0  0  0  0  0  0  0  0  0  0  0  0
    8.7032  -12.9574    0.0000 N   0  0  0  0  0  0  0  0  0  0  0  0
    5.9459  -13.0777    0.0000 C   0  0  0  0  0  0  0  0  0  0  0  0
    8.0855  -13.5048    0.0000 S   0  0  0  0  0  0  0  0  0  0  0  0
    8.7821  -10.0550    0.0000 C   0  0  0  0  0  0  0  0  0  0  0  0
    5.2286  -13.4882    0.0000 N   0  0  0  0  0  0  0  0  0  0  0  0
    9.1967   -9.3418    0.0000 C   0  0  0  0  0  0  0  0  0  0  0  0
    3.0891  -12.2443    0.0000 C   0  0  0  0  0  0  0  0  0  0  0  0
    4.5112  -12.2443    0.0000 C   0  0  0  0  0  0  0  0  0  0  0  0
    4.5154  -13.0694    0.0000 C   0  0  0  0  0  0  0  0  0  0  0  0
    5.9501  -12.2568    0.0000 O   0  0  0  0  0  0  0  0  0  0  0  0
    8.7821  -11.4855    0.0000 S   0  0  0  0  0  0  0  0  0  0  0  0
    2.9771  -11.0128    0.0000 F   0  0  0  0  0  0  0  0  0  0  0  0
    4.6191  -11.0128    0.0000 F   0  0  0  0  0  0  0  0  0  0  0  0
    3.7981  -10.1919    0.0000 F   0  0  0  0  0  0  0  0  0  0  0  0
    3.0891  -13.0694    0.0000 C   0  0  0  0  0  0  0  0  0  0  0  0
    3.7981  -13.4799    0.0000 C   0  0  0  0  0  0  0  0  0  0  0  0
    2.3717  -11.8255    0.0000 Cl  0  0  0  0  0  0  0  0  0  0  0  0
    8.3716  -10.7723    0.0000 C   0  0  0  0  0  0  0  0  0  0  0  0
  2  1  2  0  0  0  0
  3 14  1  0  0  0  0
  4  1  1  0  0  0  0
  5  3  1  0  0  0  0
  6  2  1  0  0  0  0
  7  4  2  0  0  0  0
  8  6  1  0  0  0  0
  9  2  1  0  0  0  0
 10 24  1  0  0  0  0
 11  8  1  0  0  0  0
 12 10  3  0  0  0  0
 13 21  1  0  0  0  0
 14 15  2  0  0  0  0
 15 11  1  0  0  0  0
 16  8  2  0  0  0  0
 17  4  1  0  0  0  0
 18  5  1  0  0  0  0
 19  5  1  0  0  0  0
 20  5  1  0  0  0  0
 21 22  2  0  0  0  0
 22 15  1  0  0  0  0
 23 13  1  0  0  0  0
 24 17  1  0  0  0  0
  9  7  1  0  0  0  0
  3 13  2  0  0  0  0
M  END
>  <Mol Weight>
392.807

>  <Click ID>
CLK004_D03

>  <Plant Activity>
0

>  <Yeast Activity>
1

$$$$

  Marvin  06120816592D          

 19 20  0  0  0  0            999 V2000
    0.6640   -0.1162    0.0000 N   0  0  0  0  0  0  0  0  0  0  0  0
    1.3862   -0.5395    0.0000 C   0  0  0  0  0  0  0  0  0  0  0  0
   -0.0581   -0.5174    0.0000 C   0  0  0  0  0  0  0  0  0  0  0  0
    0.8383    0.6862    0.0000 C   0  0  0  0  0  0  0  0  0  0  0  0
    1.9921    0.0055    0.0000 N   0  0  0  0  0  0  0  0  0  0  0  0
    1.4802   -1.3585    0.0000 S   0  0  0  0  0  0  0  0  0  0  0  0
   -0.7802   -0.1162    0.0000 C   0  0  0  0  0  0  0  0  0  0  0  0
   -0.0747   -1.3419    0.0000 O   0  0  0  0  0  0  0  0  0  0  0  0
    1.6573    0.7664    0.0000 N   0  0  0  0  0  0  0  0  0  0  0  0
    2.2328   -1.6932    0.0000 C   0  0  0  0  0  0  0  0  0  0  0  0
   -0.7802    0.7139    0.0000 C   0  0  0  0  0  0  0  0  0  0  0  0
    2.3324   -2.5122    0.0000 C   0  0  0  0  0  0  0  0  0  0  0  0
   -1.5023    1.1454    0.0000 C   0  0  0  0  0  0  0  0  0  0  0  0
    2.4292   -3.3256    0.0000 C   0  0  0  0  0  0  0  0  0  0  0  0
   -2.2107    0.7277    0.0000 C   0  0  0  0  0  0  0  0  0  0  0  0
   -1.5023    1.9700    0.0000 C   0  0  0  0  0  0  0  0  0  0  0  0
   -2.9328    1.1454    0.0000 C   0  0  0  0  0  0  0  0  0  0  0  0
   -2.2107    2.3905    0.0000 C   0  0  0  0  0  0  0  0  0  0  0  0
   -2.9466    1.9700    0.0000 C   0  0  0  0  0  0  0  0  0  0  0  0
  1  2  1  0  0  0  0
  1  3  1  0  0  0  0
  1  4  1  0  0  0  0
  2  5  2  0  0  0  0
  2  6  1  0  0  0  0
  3  7  1  0  0  0  0
  3  8  2  0  0  0  0
  4  9  2  0  0  0  0
  6 10  1  0  0  0  0
  7 11  2  0  0  0  0
 10 12  1  0  0  0  0
 11 13  1  0  0  0  0
 12 14  3  0  0  0  0
 13 15  1  0  0  0  0
 13 16  2  0  0  0  0
 15 17  2  0  0  0  0
 16 18  1  0  0  0  0
 17 19  1  0  0  0  0
  5  9  1  0  0  0  0
 18 19  2  0  0  0  0
M  END
>  <Mol Weight>
269.322

>  <Click ID>
CLK004_A02

>  <Plant Activity>
0

>  <Yeast Activity>
1

$$$$

  Marvin  06120816592D          

 18 19  0  0  0  0            999 V2000
    1.4202   -0.2276    0.0000 N   0  0  0  0  0  0  0  0  0  0  0  0
    0.9445   -0.9173    0.0000 C   0  0  0  0  0  0  0  0  0  0  0  0
    1.0634    0.5028    0.0000 C   0  0  0  0  0  0  0  0  0  0  0  0
    2.2084   -0.4825    0.0000 C   0  0  0  0  0  0  0  0  0  0  0  0
    1.4371   -1.5663    0.0000 N   0  0  0  0  0  0  0  0  0  0  0  0
    0.1189   -0.9173    0.0000 S   0  0  0  0  0  0  0  0  0  0  0  0
    0.2548    0.5844    0.0000 C   0  0  0  0  0  0  0  0  0  0  0  0
    1.5357    1.1925    0.0000 O   0  0  0  0  0  0  0  0  0  0  0  0
    2.2084   -1.3114    0.0000 N   0  0  0  0  0  0  0  0  0  0  0  0
   -0.2989   -1.6274    0.0000 C   0  0  0  0  0  0  0  0  0  0  0  0
   -0.1019    1.3285    0.0000 C   0  0  0  0  0  0  0  0  0  0  0  0
   -1.1246   -1.6274    0.0000 C   0  0  0  0  0  0  0  0  0  0  0  0
   -0.9275    1.4099    0.0000 C   0  0  0  0  0  0  0  0  0  0  0  0
   -1.5357   -2.3341    0.0000 C   0  0  0  0  0  0  0  0  0  0  0  0
   -1.3386    2.1167    0.0000 C   0  0  0  0  0  0  0  0  0  0  0  0
   -1.4813    0.7984    0.0000 S   0  0  0  0  0  0  0  0  0  0  0  0
   -2.1472    1.9400    0.0000 C   0  0  0  0  0  0  0  0  0  0  0  0
   -2.2254    1.1314    0.0000 C   0  0  0  0  0  0  0  0  0  0  0  0
  1  2  1  0  0  0  0
  1  3  1  0  0  0  0
  1  4  1  0  0  0  0
  2  5  2  0  0  0  0
  2  6  1  0  0  0  0
  3  7  1  0  0  0  0
  3  8  2  0  0  0  0
  4  9  2  0  0  0  0
  6 10  1  0  0  0  0
  7 11  2  0  0  0  0
 10 12  1  0  0  0  0
 11 13  1  0  0  0  0
 12 14  3  0  0  0  0
 13 15  2  0  0  0  0
 13 16  1  0  0  0  0
 15 17  1  0  0  0  0
 16 18  1  0  0  0  0
  5  9  1  0  0  0  0
 17 18  2  0  0  0  0
M  END
>  <Mol Weight>
275.349

>  <Click ID>
CLK003_G10

>  <Plant Activity>
0

>  <Yeast Activity>
1

$$$$

  Marvin  06120816592D          

 14 15  0  0  0  0            999 V2000
   -0.5092    0.0620    0.0000 C   0  0  0  0  0  0  0  0  0  0  0  0
   -0.5092    0.8858    0.0000 C   0  0  0  0  0  0  0  0  0  0  0  0
    0.2081   -0.3454    0.0000 C   0  0  0  0  0  0  0  0  0  0  0  0
   -1.2311   -0.3454    0.0000 N   0  0  0  0  0  0  0  0  0  0  0  0
    0.2081    1.2974    0.0000 C   0  0  0  0  0  0  0  0  0  0  0  0
   -1.2311    1.2974    0.0000 C   0  0  0  0  0  0  0  0  0  0  0  0
    0.9300    0.0620    0.0000 C   0  0  0  0  0  0  0  0  0  0  0  0
    0.2081   -1.1690    0.0000 S   0  0  0  0  0  0  0  0  0  0  0  0
   -1.9485    0.0620    0.0000 C   0  0  0  0  0  0  0  0  0  0  0  0
    0.9300    0.8858    0.0000 C   0  0  0  0  0  0  0  0  0  0  0  0
   -1.9485    0.8858    0.0000 C   0  0  0  0  0  0  0  0  0  0  0  0
    0.9300   -1.5810    0.0000 C   0  0  0  0  0  0  0  0  0  0  0  0
    1.6342   -1.1956    0.0000 C   0  0  0  0  0  0  0  0  0  0  0  0
    2.3294   -0.8104    0.0000 C   0  0  0  0  0  0  0  0  0  0  0  0
  1  2  1  0  0  0  0
  1  3  2  0  0  0  0
  1  4  1  0  0  0  0
  2  5  2  0  0  0  0
  2  6  1  0  0  0  0
  3  7  1  0  0  0  0
  3  8  1  0  0  0  0
  4  9  2  0  0  0  0
  5 10  1  0  0  0  0
  6 11  2  0  0  0  0
  8 12  1  0  0  0  0
 12 13  1  0  0  0  0
 13 14  3  0  0  0  0
  7 10  2  0  0  0  0
  9 11  1  0  0  0  0
M  END
>  <Mol Weight>
199.272

>  <Click ID>
CLK003_F09

>  <Plant Activity>
0

>  <Yeast Activity>
1

$$$$

  Marvin  06120816592D          

 18 19  0  0  0  0            999 V2000
    0.8014    0.6919    0.0000 N   0  0  0  0  0  0  0  0  0  0  0  0
    1.5814    0.5507    0.0000 C   0  0  0  0  0  0  0  0  0  0  0  0
    0.2506    0.0777    0.0000 C   0  0  0  0  0  0  0  0  0  0  0  0
    0.6990    1.5109    0.0000 C   0  0  0  0  0  0  0  0  0  0  0  0
    1.9768    1.2673    0.0000 N   0  0  0  0  0  0  0  0  0  0  0  0
    1.9275   -0.2294    0.0000 S   0  0  0  0  0  0  0  0  0  0  0  0
   -0.5472    0.2647    0.0000 C   0  0  0  0  0  0  0  0  0  0  0  0
    0.4943   -0.6954    0.0000 O   0  0  0  0  0  0  0  0  0  0  0  0
    1.4649    1.8639    0.0000 N   0  0  0  0  0  0  0  0  0  0  0  0
    1.4649   -0.9002    0.0000 C   0  0  0  0  0  0  0  0  0  0  0  0
   -1.0944   -0.3495    0.0000 C   0  0  0  0  0  0  0  0  0  0  0  0
    1.8074   -1.6414    0.0000 C   0  0  0  0  0  0  0  0  0  0  0  0
   -1.9133   -0.1659    0.0000 C   0  0  0  0  0  0  0  0  0  0  0  0
    2.1604   -2.3969    0.0000 C   0  0  0  0  0  0  0  0  0  0  0  0
   -2.2205    0.5896    0.0000 C   0  0  0  0  0  0  0  0  0  0  0  0
   -2.5488   -0.6954    0.0000 O   0  0  0  0  0  0  0  0  0  0  0  0
   -3.0500    0.5331    0.0000 C   0  0  0  0  0  0  0  0  0  0  0  0
   -3.2547   -0.2683    0.0000 C   0  0  0  0  0  0  0  0  0  0  0  0
  1  2  1  0  0  0  0
  1  3  1  0  0  0  0
  1  4  1  0  0  0  0
  2  5  2  0  0  0  0
  2  6  1  0  0  0  0
  3  7  1  0  0  0  0
  3  8  2  0  0  0  0
  4  9  2  0  0  0  0
  6 10  1  0  0  0  0
  7 11  2  0  0  0  0
 10 12  1  0  0  0  0
 11 13  1  0  0  0  0
 12 14  3  0  0  0  0
 13 15  2  0  0  0  0
 13 16  1  0  0  0  0
 15 17  1  0  0  0  0
 16 18  1  0  0  0  0
  5  9  1  0  0  0  0
 17 18  2  0  0  0  0
M  END
>  <Mol Weight>
259.284

>  <Click ID>
CLK003_A10

>  <Plant Activity>
0

>  <Yeast Activity>
1

$$$$

  Marvin  06120816592D          

 23 24  0  0  0  0            999 V2000
    1.3259    1.1212    0.0000 N   0  0  0  0  0  0  0  0  0  0  0  0
    2.1299    1.2810    0.0000 C   0  0  0  0  0  0  0  0  0  0  0  0
    1.0487    0.3446    0.0000 C   0  0  0  0  0  0  0  0  0  0  0  0
    0.9189    1.8453    0.0000 C   0  0  0  0  0  0  0  0  0  0  0  0
    2.2223    2.1124    0.0000 N   0  0  0  0  0  0  0  0  0  0  0  0
    2.7442    0.7141    0.0000 S   0  0  0  0  0  0  0  0  0  0  0  0
    0.2472    0.1848    0.0000 C   0  0  0  0  0  0  0  0  0  0  0  0
    1.6005   -0.2697    0.0000 O   0  0  0  0  0  0  0  0  0  0  0  0
    1.4832    2.4520    0.0000 N   0  0  0  0  0  0  0  0  0  0  0  0
    2.5644   -0.1049    0.0000 C   0  0  0  0  0  0  0  0  0  0  0  0
   -0.0125   -0.6017    0.0000 C   0  0  0  0  0  0  0  0  0  0  0  0
    3.1787   -0.6542    0.0000 C   0  0  0  0  0  0  0  0  0  0  0  0
   -0.8240   -0.7616    0.0000 C   0  0  0  0  0  0  0  0  0  0  0  0
    3.7804   -1.2186    0.0000 C   0  0  0  0  0  0  0  0  0  0  0  0
   -1.3833   -0.1623    0.0000 C   0  0  0  0  0  0  0  0  0  0  0  0
   -1.0936   -1.5581    0.0000 C   0  0  0  0  0  0  0  0  0  0  0  0
   -2.1848   -0.3221    0.0000 C   0  0  0  0  0  0  0  0  0  0  0  0
   -1.9052   -1.7179    0.0000 C   0  0  0  0  0  0  0  0  0  0  0  0
   -2.4470   -1.1036    0.0000 C   0  0  0  0  0  0  0  0  0  0  0  0
   -2.7517    0.3021    0.0000 O   0  0  0  0  0  0  0  0  0  0  0  0
   -3.2511   -1.2984    0.0000 O   0  0  0  0  0  0  0  0  0  0  0  0
   -3.5632    0.1124    0.0000 C   0  0  0  0  0  0  0  0  0  0  0  0
   -3.8229   -0.6991    0.0000 C   0  0  0  0  0  0  0  0  0  0  0  0
  1  2  1  0  0  0  0
  1  3  1  0  0  0  0
  1  4  1  0  0  0  0
  2  5  2  0  0  0  0
  2  6  1  0  0  0  0
  3  7  1  0  0  0  0
  3  8  2  0  0  0  0
  4  9  2  0  0  0  0
  6 10  1  0  0  0  0
  7 11  2  0  0  0  0
 10 12  1  0  0  0  0
 11 13  1  0  0  0  0
 12 14  3  0  0  0  0
 13 15  1  0  0  0  0
 13 16  2  0  0  0  0
 15 17  2  0  0  0  0
 16 18  1  0  0  0  0
 17 19  1  0  0  0  0
 17 20  1  0  0  0  0
 19 21  1  0  0  0  0
 20 22  1  0  0  0  0
 21 23  1  0  0  0  0
  5  9  1  0  0  0  0
 18 19  2  0  0  0  0
M  END
>  <Mol Weight>
329.374

>  <Click ID>
CLK003_A05

>  <Plant Activity>
0

>  <Yeast Activity>
1

$$$$

  Marvin  06120816592D          

 18 18  0  0  0  0            999 V2000
    0.0776   -0.2598    0.0000 C   0  0  0  0  0  0  0  0  0  0  0  0
   -0.6438    0.1435    0.0000 C   0  0  0  0  0  0  0  0  0  0  0  0
    0.0776   -1.0667    0.0000 C   0  0  0  0  0  0  0  0  0  0  0  0
    0.7951    0.1435    0.0000 C   0  0  0  0  0  0  0  0  0  0  0  0
   -1.3614   -0.2598    0.0000 C   0  0  0  0  0  0  0  0  0  0  0  0
   -0.6438    0.9890    0.0000 C   0  0  0  0  0  0  0  0  0  0  0  0
   -0.6438   -1.4738    0.0000 C   0  0  0  0  0  0  0  0  0  0  0  0
    0.7951   -1.5088    0.0000 C   0  0  0  0  0  0  0  0  0  0  0  0
    0.7951    0.9580    0.0000 C   0  0  0  0  0  0  0  0  0  0  0  0
   -1.3614   -1.0667    0.0000 C   0  0  0  0  0  0  0  0  0  0  0  0
   -2.0867    0.1435    0.0000 C   0  0  0  0  0  0  0  0  0  0  0  0
    1.5126    1.3575    0.0000 C   0  0  0  0  0  0  0  0  0  0  0  0
   -2.0867   -1.5088    0.0000 O   0  0  0  0  0  0  0  0  0  0  0  0
    1.9199    0.6516    0.0000 C   0  0  0  0  0  0  0  0  0  0  0  0
    2.2380    1.8035    0.0000 C   0  0  0  0  0  0  0  0  0  0  0  0
    1.0899    2.1023    0.0000 O   0  0  0  0  0  0  0  0  0  0  0  0
   -2.8043   -1.1015    0.0000 C   0  0  0  0  0  0  0  0  0  0  0  0
    2.3505   -0.0543    0.0000 C   0  0  0  0  0  0  0  0  0  0  0  0
  1  2  1  0  0  0  0
  1  3  2  0  0  0  0
  1  4  1  0  0  0  0
  2  5  2  0  0  0  0
  2  6  1  0  0  0  0
  3  7  1  0  0  0  0
  3  8  1  0  0  0  0
  4  9  1  0  0  0  0
  5 10  1  0  0  0  0
  5 11  1  0  0  0  0
  9 12  1  0  0  0  0
 10 13  1  0  0  0  0
 12 14  1  0  0  0  0
 12 15  1  0  0  0  0
 12 16  1  0  0  0  0
 13 17  1  0  0  0  0
 14 18  3  0  0  0  0
  7 10  2  0  0  0  0
M  END
>  <Mol Weight>
246.3447

>  <Click ID>
CLK002_H02

>  <Plant Activity>
0

>  <Yeast Activity>
1

$$$$

  Marvin  06120816592D          

 15 16  0  0  0  0            999 V2000
   -0.0681   -0.1550    0.0000 C   0  0  0  0  0  0  0  0  0  0  0  0
   -0.0681    0.6727    0.0000 C   0  0  0  0  0  0  0  0  0  0  0  0
    0.7142   -0.4006    0.0000 N   0  0  0  0  0  0  0  0  0  0  0  0
   -0.7860   -0.5668    0.0000 C   0  0  0  0  0  0  0  0  0  0  0  0
    0.7142    0.9259    0.0000 C   0  0  0  0  0  0  0  0  0  0  0  0
   -0.7860    1.0922    0.0000 C   0  0  0  0  0  0  0  0  0  0  0  0
    1.2056    0.2607    0.0000 C   0  0  0  0  0  0  0  0  0  0  0  0
    0.9713   -1.1904    0.0000 C   0  0  0  0  0  0  0  0  0  0  0  0
   -1.4928   -0.1550    0.0000 C   0  0  0  0  0  0  0  0  0  0  0  0
    0.9713    1.7120    0.0000 O   0  0  0  0  0  0  0  0  0  0  0  0
   -1.4928    0.6727    0.0000 C   0  0  0  0  0  0  0  0  0  0  0  0
    2.0294    0.2607    0.0000 O   0  0  0  0  0  0  0  0  0  0  0  0
    0.4233   -1.7989    0.0000 C   0  0  0  0  0  0  0  0  0  0  0  0
   -2.2108    1.0808    0.0000 Br  0  0  0  0  0  0  0  0  0  0  0  0
   -0.1284   -2.4111    0.0000 C   0  0  0  0  0  0  0  0  0  0  0  0
  1  2  2  0  0  0  0
  1  3  1  0  0  0  0
  1  4  1  0  0  0  0
  2  5  1  0  0  0  0
  2  6  1  0  0  0  0
  3  7  1  0  0  0  0
  3  8  1  0  0  0  0
  4  9  2  0  0  0  0
  5 10  2  0  0  0  0
  6 11  2  0  0  0  0
  7 12  2  0  0  0  0
  8 13  1  0  0  0  0
 11 14  1  0  0  0  0
 13 15  3  0  0  0  0
  5  7  1  0  0  0  0
  9 11  1  0  0  0  0
M  END
>  <Mol Weight>
264.075

>  <Click ID>
CLK002_G07

>  <Plant Activity>
0

>  <Yeast Activity>
1

$$$$

  Marvin  06120816592D          

 21 22  0  0  0  0            999 V2000
   -0.3935    0.2036    0.0000 C   0  0  0  0  0  0  0  0  0  0  0  0
   -1.2185    0.1968    0.0000 S   0  0  0  0  0  0  0  0  0  0  0  0
    0.0207   -0.5075    0.0000 C   0  0  0  0  0  0  0  0  0  0  0  0
    0.0172    0.9182    0.0000 C   0  0  0  0  0  0  0  0  0  0  0  0
   -2.0436    0.1968    0.0000 N   0  0  0  0  0  0  0  0  0  0  0  0
   -1.2220   -0.6283    0.0000 O   0  0  0  0  0  0  0  0  0  0  0  0
   -1.2185    1.0218    0.0000 O   0  0  0  0  0  0  0  0  0  0  0  0
    0.8457   -0.5075    0.0000 C   0  0  0  0  0  0  0  0  0  0  0  0
    0.8354    0.9217    0.0000 C   0  0  0  0  0  0  0  0  0  0  0  0
   -2.4579   -0.5178    0.0000 C   0  0  0  0  0  0  0  0  0  0  0  0
   -2.4579    0.9182    0.0000 C   0  0  0  0  0  0  0  0  0  0  0  0
    1.2600    0.2036    0.0000 C   0  0  0  0  0  0  0  0  0  0  0  0
   -3.2829   -0.5178    0.0000 C   0  0  0  0  0  0  0  0  0  0  0  0
   -3.2864    0.9182    0.0000 C   0  0  0  0  0  0  0  0  0  0  0  0
    2.0851    0.2036    0.0000 C   0  0  0  0  0  0  0  0  0  0  0  0
   -3.6971    0.2036    0.0000 O   0  0  0  0  0  0  0  0  0  0  0  0
    2.4993   -0.5075    0.0000 O   0  0  0  0  0  0  0  0  0  0  0  0
    2.4993    0.9217    0.0000 O   0  0  0  0  0  0  0  0  0  0  0  0
    3.3243   -0.5039    0.0000 C   0  0  0  0  0  0  0  0  0  0  0  0
    3.7455   -1.2185    0.0000 C   0  0  0  0  0  0  0  0  0  0  0  0
    4.1493   -1.9297    0.0000 C   0  0  0  0  0  0  0  0  0  0  0  0
  1  2  1  0  0  0  0
  1  3  2  0  0  0  0
  1  4  1  0  0  0  0
  2  5  1  0  0  0  0
  2  6  2  0  0  0  0
  2  7  2  0  0  0  0
  3  8  1  0  0  0  0
  4  9  2  0  0  0  0
  5 10  1  0  0  0  0
  5 11  1  0  0  0  0
  8 12  2  0  0  0  0
 10 13  1  0  0  0  0
 11 14  1  0  0  0  0
 12 15  1  0  0  0  0
 13 16  1  0  0  0  0
 15 17  1  0  0  0  0
 15 18  2  0  0  0  0
 17 19  1  0  0  0  0
 19 20  1  0  0  0  0
 20 21  3  0  0  0  0
  9 12  1  0  0  0  0
 14 16  1  0  0  0  0
M  END
>  <Mol Weight>
309.338

>  <Click ID>
CLK002_F02

>  <Plant Activity>
0

>  <Yeast Activity>
1

$$$$
