
 OpenBabel11211205573D

 37 38  0  0  0  0  0  0  0  0999 V2000
   -0.4304    4.1509   -0.4534 C   0  0  0  0  0  0  0  0  0  0  0  0
   -2.3731    5.1846    0.6211 N   0  0  0  0  0  0  0  0  0  0  0  0
   -1.5534    5.7770    1.5749 C   0  0  0  0  0  0  0  0  0  0  0  0
   -1.8992    4.3907   -0.4250 C   0  0  0  0  0  0  0  0  0  0  0  0
   -0.2286    5.4378    1.5445 N   0  0  0  0  0  0  0  0  0  0  0  0
    0.3982    4.5782    0.6886 C   0  0  0  0  0  0  0  0  0  0  0  0
    0.0732    3.5745   -1.5632 C   0  0  0  0  0  0  0  0  0  0  0  0
   -2.0229    6.8540    2.7724 S   0  0  0  0  0  0  0  0  0  0  0  0
    7.0421    1.3562   -4.1812 C   0  0  0  0  0  0  0  0  0  0  0  0
    7.9623    1.3980   -4.9484 C   0  0  0  0  0  0  0  0  0  0  0  0
   -2.6288    3.9223   -1.2990 O   0  0  0  0  0  0  0  0  0  0  0  0
    3.3711    1.7613   -1.8581 C   0  0  0  0  0  0  0  0  0  0  0  0
    1.5434    4.2051    0.9070 O   0  0  0  0  0  0  0  0  0  0  0  0
    1.4828    3.3025   -1.8544 C   0  0  0  0  0  0  0  0  0  0  0  0
    2.0348    2.0538   -1.5463 C   0  0  0  0  0  0  0  0  0  0  0  0
    4.1431    2.7197   -2.5364 C   0  0  0  0  0  0  0  0  0  0  0  0
   -3.8165    5.4290    0.6319 C   0  0  0  0  0  0  0  0  0  0  0  0
    3.5944    3.9805   -2.8055 C   0  0  0  0  0  0  0  0  0  0  0  0
    2.2722    4.2734   -2.4704 C   0  0  0  0  0  0  0  0  0  0  0  0
    3.9382    0.5494   -1.5602 O   0  0  0  0  0  0  0  0  0  0  0  0
    5.4401    2.5944   -2.9656 O   0  0  0  0  0  0  0  0  0  0  0  0
    5.9017    1.2754   -3.2521 C   0  0  0  0  0  0  0  0  0  0  0  0
    3.4780   -0.0791   -0.3682 C   0  0  0  0  0  0  0  0  0  0  0  0
    0.3507    5.7872    2.2978 H   0  0  0  0  0  0  0  0  0  0  0  0
   -0.5880    3.2866   -2.3809 H   0  0  0  0  0  0  0  0  0  0  0  0
    8.7771    1.4285   -5.6363 H   0  0  0  0  0  0  0  0  0  0  0  0
    1.4008    1.3112   -1.0728 H   0  0  0  0  0  0  0  0  0  0  0  0
   -4.3638    4.7157    0.0095 H   0  0  0  0  0  0  0  0  0  0  0  0
   -4.0002    6.4393    0.2524 H   0  0  0  0  0  0  0  0  0  0  0  0
   -4.2088    5.3489    1.6500 H   0  0  0  0  0  0  0  0  0  0  0  0
    4.2029    4.7351   -3.2991 H   0  0  0  0  0  0  0  0  0  0  0  0
    1.8681    5.2534   -2.7102 H   0  0  0  0  0  0  0  0  0  0  0  0
    5.1204    0.6727   -3.7303 H   0  0  0  0  0  0  0  0  0  0  0  0
    6.2380    0.8002   -2.3243 H   0  0  0  0  0  0  0  0  0  0  0  0
    4.1722   -0.8920   -0.1340 H   0  0  0  0  0  0  0  0  0  0  0  0
    2.4900   -0.5254   -0.5169 H   0  0  0  0  0  0  0  0  0  0  0  0
    3.4758    0.6158    0.4785 H   0  0  0  0  0  0  0  0  0  0  0  0
  2  4  1  0  0  0  0
  2  3  1  0  0  0  0
  3  5  1  0  0  0  0
  4  1  1  0  0  0  0
  5  6  1  0  0  0  0
  5 24  1  0  0  0  0
  6  1  1  0  0  0  0
  7  1  2  0  0  0  0
  7 14  1  0  0  0  0
  7 25  1  0  0  0  0
  8  3  2  0  0  0  0
  9 22  1  0  0  0  0
 10  9  3  0  0  0  0
 10 26  1  0  0  0  0
 11  4  2  0  0  0  0
 12 15  1  0  0  0  0
 12 16  2  0  0  0  0
 13  6  2  0  0  0  0
 15 14  2  0  0  0  0
 15 27  1  0  0  0  0
 16 18  1  0  0  0  0
 17  2  1  0  0  0  0
 17 28  1  0  0  0  0
 17 29  1  0  0  0  0
 17 30  1  0  0  0  0
 18 19  2  0  0  0  0
 18 31  1  0  0  0  0
 19 14  1  0  0  0  0
 19 32  1  0  0  0  0
 20 12  1  0  0  0  0
 21 16  1  0  0  0  0
 22 21  1  0  0  0  0
 22 33  1  0  0  0  0
 22 34  1  0  0  0  0
 23 20  1  0  0  0  0
 23 35  1  0  0  0  0
 23 36  1  0  0  0  0
 23 37  1  0  0  0  0
M  END
>  <Mol Weight>
330.358

>  <Click ID>
CLK028_H03

>  <Plant Activity>
0

>  <Yeast Activity>
1

$$$$

 OpenBabel11211205573D

 20 20  0  0  0  0  0  0  0  0999 V2000
    2.2439    1.9202   -0.0307 C   0  0  0  0  0  0  0  0  0  0  0  0
    2.1970   -0.4291    0.4978 C   0  0  0  0  0  0  0  0  0  0  0  0
    1.5029    0.7436    0.1586 C   0  0  0  0  0  0  0  0  0  0  0  0
    3.5945   -0.4388    0.5938 C   0  0  0  0  0  0  0  0  0  0  0  0
   -1.5679    0.3423   -1.5548 C   0  0  0  0  0  0  0  0  0  0  0  0
   -2.5189   -0.2846   -1.9346 C   0  0  0  0  0  0  0  0  0  0  0  0
    3.6443    1.9084    0.0290 C   0  0  0  0  0  0  0  0  0  0  0  0
    4.3098    0.7290    0.3452 C   0  0  0  0  0  0  0  0  0  0  0  0
    1.5925    3.2289   -0.2153 C   0  0  0  0  0  0  0  0  0  0  0  0
    2.1130    4.1123   -0.8833 O   0  0  0  0  0  0  0  0  0  0  0  0
    1.2828   -2.0601    0.8390 Br  0  0  0  0  0  0  0  0  0  0  0  0
    0.1324    0.6809    0.0853 O   0  0  0  0  0  0  0  0  0  0  0  0
    6.1952    0.7257    0.4791 Br  0  0  0  0  0  0  0  0  0  0  0  0
   -0.4247    1.1671   -1.1467 C   0  0  0  0  0  0  0  0  0  0  0  0
    4.1211   -1.3518    0.8629 H   0  0  0  0  0  0  0  0  0  0  0  0
   -3.3709   -0.8212   -2.2902 H   0  0  0  0  0  0  0  0  0  0  0  0
    4.2025    2.8285   -0.1372 H   0  0  0  0  0  0  0  0  0  0  0  0
    0.6141    3.3685    0.2706 H   0  0  0  0  0  0  0  0  0  0  0  0
    0.3162    1.1903   -1.9543 H   0  0  0  0  0  0  0  0  0  0  0  0
   -0.7889    2.1854   -0.9728 H   0  0  0  0  0  0  0  0  0  0  0  0
  2  3  2  0  0  0  0
  2  4  1  0  0  0  0
  3  1  1  0  0  0  0
  4  8  2  0  0  0  0
  4 15  1  0  0  0  0
  5 14  1  0  0  0  0
  6  5  3  0  0  0  0
  6 16  1  0  0  0  0
  7  1  2  0  0  0  0
  7 17  1  0  0  0  0
  8  7  1  0  0  0  0
  9  1  1  0  0  0  0
  9 18  1  0  0  0  0
 10  9  2  0  0  0  0
 11  2  1  0  0  0  0
 12  3  1  0  0  0  0
 13  8  1  0  0  0  0
 14 12  1  0  0  0  0
 14 19  1  0  0  0  0
 14 20  1  0  0  0  0
M  END
>  <Mol Weight>
317.961

>  <Click ID>
CLK028_G06

>  <Plant Activity>
0

>  <Yeast Activity>
1

$$$$

 OpenBabel11211205573D

 50 52  0  0  1  0  0  0  0  0999 V2000
    0.7507   -0.3508    0.6895 C   0  0  0  0  0  0  0  0  0  0  0  0
    2.8652   -0.9123    2.0599 C   0  0  0  0  0  0  0  0  0  0  0  0
    2.0470   -1.1094    0.8012 C   0  0  3  0  0  0  0  0  0  0  0  0
   -0.4416   -0.4923    1.3841 C   0  0  0  0  0  0  0  0  0  0  0  0
    2.6214   -0.1121    3.1645 C   0  0  0  0  0  0  0  0  0  0  0  0
   -0.7501    1.2201   -0.0733 N   0  0  0  0  0  0  0  0  0  0  0  0
    4.5541   -1.2170    3.5979 N   0  0  0  0  0  0  0  0  0  0  0  0
    1.7003   -2.5953    0.6920 C   0  0  0  0  0  0  0  0  0  0  0  0
    3.6327   -0.3615    4.0509 N   0  0  0  0  0  0  0  0  0  0  0  0
   -1.2845    0.4652    0.8927 N   0  0  0  0  0  0  0  0  0  0  0  0
    0.4948    0.7462   -0.1957 C   0  0  0  0  0  0  0  0  0  0  0  0
    4.1177   -1.5414    2.3757 C   0  0  0  0  0  0  0  0  0  0  0  0
    1.1153   -5.3820    0.5011 C   0  0  0  0  0  0  0  0  0  0  0  0
    1.3867   -4.6084   -0.6444 C   0  0  0  0  0  0  0  0  0  0  0  0
    1.1189   -4.7407    1.7499 C   0  0  0  0  0  0  0  0  0  0  0  0
    1.6912   -3.2408   -0.5511 C   0  0  0  0  0  0  0  0  0  0  0  0
    1.3699   -3.3656    1.8202 C   0  0  0  0  0  0  0  0  0  0  0  0
    0.9922   -9.0130    0.8522 C   0  0  0  0  0  0  0  0  0  0  0  0
    0.7984  -10.1629    0.5587 C   0  0  0  0  0  0  0  0  0  0  0  0
   -0.7968   -1.3295    2.3543 O   0  0  0  0  0  0  0  0  0  0  0  0
    1.6361    0.7395    3.4283 O   0  0  0  0  0  0  0  0  0  0  0  0
    1.3929   -5.3171   -2.2256 Cl  0  0  0  0  0  0  0  0  0  0  0  0
    0.8197   -6.7103    0.2839 O   0  0  0  0  0  0  0  0  0  0  0  0
    0.8190   -5.4574    2.8772 O   0  0  0  0  0  0  0  0  0  0  0  0
    1.1796   -7.6294    1.3143 C   0  0  0  0  0  0  0  0  0  0  0  0
    1.4201    1.3745   -1.1722 C   0  0  0  0  0  0  0  0  0  0  0  0
    4.9111   -2.4962    1.5563 C   0  0  0  0  0  0  0  0  0  0  0  0
    1.3743   -4.9823    4.1068 C   0  0  0  0  0  0  0  0  0  0  0  0
    1.4650   -6.1610    5.0563 C   0  0  0  0  0  0  0  0  0  0  0  0
    2.6994   -0.8445   -0.0414 H   0  0  0  0  0  0  0  0  0  0  0  0
    3.7584    0.0184    4.9804 H   0  0  0  0  0  0  0  0  0  0  0  0
   -2.2365    0.6630    1.1731 H   0  0  0  0  0  0  0  0  0  0  0  0
    1.9113   -2.6795   -1.4566 H   0  0  0  0  0  0  0  0  0  0  0  0
    1.2919   -2.8558    2.7775 H   0  0  0  0  0  0  0  0  0  0  0  0
    0.6030  -11.1859    0.3381 H   0  0  0  0  0  0  0  0  0  0  0  0
   -1.7245   -1.1836    2.6000 H   0  0  0  0  0  0  0  0  0  0  0  0
    1.7416    1.1221    4.3140 H   0  0  0  0  0  0  0  0  0  0  0  0
    0.5173   -7.5190    2.1775 H   0  0  0  0  0  0  0  0  0  0  0  0
    2.2258   -7.4779    1.6113 H   0  0  0  0  0  0  0  0  0  0  0  0
    1.7775    0.6330   -1.8931 H   0  0  0  0  0  0  0  0  0  0  0  0
    2.2840    1.8040   -0.6557 H   0  0  0  0  0  0  0  0  0  0  0  0
    0.9285    2.1781   -1.7324 H   0  0  0  0  0  0  0  0  0  0  0  0
    4.9140   -2.1977    0.5036 H   0  0  0  0  0  0  0  0  0  0  0  0
    4.4967   -3.5060    1.6341 H   0  0  0  0  0  0  0  0  0  0  0  0
    5.9535   -2.5354    1.8928 H   0  0  0  0  0  0  0  0  0  0  0  0
    0.7131   -4.2188    4.5303 H   0  0  0  0  0  0  0  0  0  0  0  0
    2.3810   -4.5709    3.9659 H   0  0  0  0  0  0  0  0  0  0  0  0
    0.4897   -6.6458    5.1700 H   0  0  0  0  0  0  0  0  0  0  0  0
    1.8238   -5.8430    6.0387 H   0  0  0  0  0  0  0  0  0  0  0  0
    2.1526   -6.9162    4.6582 H   0  0  0  0  0  0  0  0  0  0  0  0
  3  1  1  0  0  0  0
  3  8  1  0  0  0  0
  3  2  1  0  0  0  0
  3 30  1  0  0  0  0
  4  1  2  0  0  0  0
  5  2  2  0  0  0  0
  6 10  1  0  0  0  0
  6 11  2  0  0  0  0
  7 12  2  0  0  0  0
  9  5  1  0  0  0  0
  9  7  1  0  0  0  0
  9 31  1  0  0  0  0
 10  4  1  0  0  0  0
 10 32  1  0  0  0  0
 11  1  1  0  0  0  0
 12  2  1  0  0  0  0
 13 15  1  0  0  0  0
 14 16  1  0  0  0  0
 14 13  2  0  0  0  0
 15 17  2  0  0  0  0
 16  8  2  0  0  0  0
 16 33  1  0  0  0  0
 17  8  1  0  0  0  0
 17 34  1  0  0  0  0
 18 25  1  0  0  0  0
 19 18  3  0  0  0  0
 19 35  1  0  0  0  0
 20  4  1  0  0  0  0
 20 36  1  0  0  0  0
 21  5  1  0  0  0  0
 21 37  1  0  0  0  0
 22 14  1  0  0  0  0
 23 13  1  0  0  0  0
 24 15  1  0  0  0  0
 25 23  1  0  0  0  0
 25 38  1  0  0  0  0
 25 39  1  0  0  0  0
 26 11  1  0  0  0  0
 26 40  1  0  0  0  0
 26 41  1  0  0  0  0
 26 42  1  0  0  0  0
 27 12  1  0  0  0  0
 27 43  1  0  0  0  0
 27 44  1  0  0  0  0
 27 45  1  0  0  0  0
 28 24  1  0  0  0  0
 28 46  1  0  0  0  0
 28 47  1  0  0  0  0
 29 28  1  0  0  0  0
 29 48  1  0  0  0  0
 29 49  1  0  0  0  0
 29 50  1  0  0  0  0
M  END
>  <Mol Weight>
416.858

>  <Click ID>
CLK028_D11

>  <Plant Activity>
0

>  <Yeast Activity>
1

$$$$

 OpenBabel11211205573D

 42 44  0  0  0  0  0  0  0  0999 V2000
   -0.4844   -0.8834    0.1554 C   0  0  0  0  0  0  0  0  0  0  0  0
   -0.2223    1.3525    0.2929 N   0  0  0  0  0  0  0  0  0  0  0  0
   -1.2441    0.3868    0.2762 C   0  0  0  0  0  0  0  0  0  0  0  0
    1.0683    0.8200    0.2080 N   0  0  0  0  0  0  0  0  0  0  0  0
    0.9259   -0.4720    0.1266 C   0  0  0  0  0  0  0  0  0  0  0  0
   -0.9257   -2.1453    0.0820 C   0  0  0  0  0  0  0  0  0  0  0  0
   -0.3655    2.7623    0.3725 C   0  0  0  0  0  0  0  0  0  0  0  0
   -0.7344    7.1065    0.5747 C   0  0  0  0  0  0  0  0  0  0  0  0
   -5.0906   -5.0251    4.3547 C   0  0  0  0  0  0  0  0  0  0  0  0
   -5.7969   -5.7260    5.0242 C   0  0  0  0  0  0  0  0  0  0  0  0
   -2.4559    0.4794    0.3428 O   0  0  0  0  0  0  0  0  0  0  0  0
   -0.6050    5.5967    0.5083 C   0  0  0  0  0  0  0  0  0  0  0  0
   -2.3373   -2.5320    0.0925 C   0  0  0  0  0  0  0  0  0  0  0  0
   -1.9086    7.5910    0.5153 O   0  0  0  0  0  0  0  0  0  0  0  0
   -1.6215    3.3764    0.4423 C   0  0  0  0  0  0  0  0  0  0  0  0
    0.7696    3.5877    0.3759 C   0  0  0  0  0  0  0  0  0  0  0  0
    0.6520    4.9816    0.4442 C   0  0  0  0  0  0  0  0  0  0  0  0
   -1.7384    4.7722    0.5069 C   0  0  0  0  0  0  0  0  0  0  0  0
   -2.9524   -2.9121    1.2933 C   0  0  0  0  0  0  0  0  0  0  0  0
    0.3417    7.7755    0.6839 O   0  5  0  0  0  0  0  0  0  0  0  0
   -4.2902   -3.3126    1.2967 C   0  0  0  0  0  0  0  0  0  0  0  0
    2.0727   -1.4218    0.0225 C   0  0  0  0  0  0  0  0  0  0  0  0
   -4.2313   -4.1839    3.5076 C   0  0  0  0  0  0  0  0  0  0  0  0
   -4.9950   -3.7366    2.3893 O   0  0  0  0  0  0  0  0  0  0  0  0
   -4.4153   -2.9025   -1.0887 C   0  0  0  0  0  0  0  0  0  0  0  0
   -3.0716   -2.5326   -1.0980 C   0  0  0  0  0  0  0  0  0  0  0  0
   -5.0206   -3.2873    0.1067 C   0  0  0  0  0  0  0  0  0  0  0  0
   -0.2349   -2.9787   -0.0013 H   0  0  0  0  0  0  0  0  0  0  0  0
   -6.4361   -6.3545    5.6013 H   0  0  0  0  0  0  0  0  0  0  0  0
   -2.5415    2.8015    0.4453 H   0  0  0  0  0  0  0  0  0  0  0  0
    1.7675    3.1624    0.3234 H   0  0  0  0  0  0  0  0  0  0  0  0
    1.5462    5.6029    0.4445 H   0  0  0  0  0  0  0  0  0  0  0  0
   -2.7255    5.2303    0.5566 H   0  0  0  0  0  0  0  0  0  0  0  0
   -2.3770   -2.8703    2.2122 H   0  0  0  0  0  0  0  0  0  0  0  0
    3.0106   -0.8686   -0.0787 H   0  0  0  0  0  0  0  0  0  0  0  0
    1.9492   -2.0644   -0.8533 H   0  0  0  0  0  0  0  0  0  0  0  0
    2.1215   -2.0382    0.9242 H   0  0  0  0  0  0  0  0  0  0  0  0
   -3.8750   -3.3173    4.0758 H   0  0  0  0  0  0  0  0  0  0  0  0
   -3.3723   -4.7849    3.1846 H   0  0  0  0  0  0  0  0  0  0  0  0
   -4.9930   -2.8840   -2.0086 H   0  0  0  0  0  0  0  0  0  0  0  0
   -2.6112   -2.2272   -2.0344 H   0  0  0  0  0  0  0  0  0  0  0  0
   -6.0699   -3.5721    0.1133 H   0  0  0  0  0  0  0  0  0  0  0  0
  2  3  1  0  0  0  0
  2  4  1  0  0  0  0
  2  7  1  0  0  0  0
  3  1  1  0  0  0  0
  4  5  2  0  0  0  0
  5  1  1  0  0  0  0
  6  1  2  0  0  0  0
  6 13  1  0  0  0  0
  6 28  1  0  0  0  0
  8 12  1  0  0  0  0
  9 23  1  0  0  0  0
 10  9  3  0  0  0  0
 10 29  1  0  0  0  0
 11  3  2  0  0  0  0
 12 17  2  0  0  0  0
 14  8  2  0  0  0  0
 15  7  1  0  0  0  0
 15 30  1  0  0  0  0
 16  7  2  0  0  0  0
 16 31  1  0  0  0  0
 17 16  1  0  0  0  0
 17 32  1  0  0  0  0
 18 15  2  0  0  0  0
 18 12  1  0  0  0  0
 18 33  1  0  0  0  0
 19 13  1  0  0  0  0
 19 34  1  0  0  0  0
 20  8  1  0  0  0  0
 21 19  2  0  0  0  0
 21 27  1  0  0  0  0
 22  5  1  0  0  0  0
 22 35  1  0  0  0  0
 22 36  1  0  0  0  0
 22 37  1  0  0  0  0
 23 24  1  0  0  0  0
 23 38  1  0  0  0  0
 23 39  1  0  0  0  0
 24 21  1  0  0  0  0
 25 26  1  0  0  0  0
 25 40  1  0  0  0  0
 26 13  2  0  0  0  0
 26 41  1  0  0  0  0
 27 25  2  0  0  0  0
 27 42  1  0  0  0  0
M  CHG  1  20  -1
M  END
>  <Mol Weight>
360.3627

>  <Click ID>
CLK028_D08

>  <Plant Activity>
0

>  <Yeast Activity>
1

$$$$

 OpenBabel11211205583D

 41 42  0  0  0  0  0  0  0  0999 V2000
   -0.0295    2.6820   -1.5213 C   0  0  0  0  0  0  0  0  0  0  0  0
   -2.4624    2.7890   -1.7960 N   0  0  0  0  0  0  0  0  0  0  0  0
   -2.3131    3.2829   -3.0880 C   0  0  0  0  0  0  0  0  0  0  0  0
   -1.3896    2.5312   -0.9370 C   0  0  0  0  0  0  0  0  0  0  0  0
   -1.0343    3.5385   -3.5051 N   0  0  0  0  0  0  0  0  0  0  0  0
    0.1363    3.3428   -2.8258 C   0  0  0  0  0  0  0  0  0  0  0  0
    0.9906    2.1402   -0.8240 C   0  0  0  0  0  0  0  0  0  0  0  0
   -3.5224    3.6111   -4.2042 S   0  0  0  0  0  0  0  0  0  0  0  0
    8.6738    1.7920   -2.3431 C   0  0  0  0  0  0  0  0  0  0  0  0
    9.7445    1.2528   -2.4282 C   0  0  0  0  0  0  0  0  0  0  0  0
   -1.5349    2.1749    0.2335 O   0  0  0  0  0  0  0  0  0  0  0  0
    4.1248    0.6968   -2.3078 C   0  0  0  0  0  0  0  0  0  0  0  0
    1.1977    3.7295   -3.2949 O   0  0  0  0  0  0  0  0  0  0  0  0
    2.3839    2.0199   -1.2583 C   0  0  0  0  0  0  0  0  0  0  0  0
    2.7887    0.8673   -1.9338 C   0  0  0  0  0  0  0  0  0  0  0  0
    5.0726    1.7033   -2.0514 C   0  0  0  0  0  0  0  0  0  0  0  0
   -3.7901    2.5171   -1.2295 C   0  0  0  0  0  0  0  0  0  0  0  0
   -4.2980    3.7483   -0.5313 C   0  0  0  0  0  0  0  0  0  0  0  0
    4.6508    2.8697   -1.4027 C   0  0  0  0  0  0  0  0  0  0  0  0
   -5.4051    4.4187   -0.8776 C   0  0  0  0  0  0  0  0  0  0  0  0
    3.3187    3.0209   -0.9946 C   0  0  0  0  0  0  0  0  0  0  0  0
    4.3817   -0.4746   -2.9766 O   0  0  0  0  0  0  0  0  0  0  0  0
    6.3509    1.4653   -2.4722 O   0  0  0  0  0  0  0  0  0  0  0  0
    7.3596    2.4306   -2.1900 C   0  0  0  0  0  0  0  0  0  0  0  0
    5.4781   -1.2121   -2.4421 C   0  0  0  0  0  0  0  0  0  0  0  0
   -0.9258    3.9580   -4.4205 H   0  0  0  0  0  0  0  0  0  0  0  0
    0.8055    1.6523    0.1327 H   0  0  0  0  0  0  0  0  0  0  0  0
   10.6899    0.7675   -2.4954 H   0  0  0  0  0  0  0  0  0  0  0  0
    2.0749    0.0804   -2.1630 H   0  0  0  0  0  0  0  0  0  0  0  0
   -3.7312    1.6975   -0.5036 H   0  0  0  0  0  0  0  0  0  0  0  0
   -4.4815    2.1799   -2.0079 H   0  0  0  0  0  0  0  0  0  0  0  0
   -3.7293    4.0852    0.3338 H   0  0  0  0  0  0  0  0  0  0  0  0
    5.3273    3.6928   -1.2000 H   0  0  0  0  0  0  0  0  0  0  0  0
   -6.0182    4.1174   -1.7222 H   0  0  0  0  0  0  0  0  0  0  0  0
   -5.7230    5.2937   -0.3184 H   0  0  0  0  0  0  0  0  0  0  0  0
    3.0182    3.9335   -0.4857 H   0  0  0  0  0  0  0  0  0  0  0  0
    7.2888    2.7977   -1.1588 H   0  0  0  0  0  0  0  0  0  0  0  0
    7.2592    3.2689   -2.8870 H   0  0  0  0  0  0  0  0  0  0  0  0
    5.2709   -2.2743   -2.6065 H   0  0  0  0  0  0  0  0  0  0  0  0
    5.6043   -1.0620   -1.3638 H   0  0  0  0  0  0  0  0  0  0  0  0
    6.3983   -0.9693   -2.9808 H   0  0  0  0  0  0  0  0  0  0  0  0
  2  4  1  0  0  0  0
  3  2  1  0  0  0  0
  3  5  1  0  0  0  0
  4  1  1  0  0  0  0
  5  6  1  0  0  0  0
  5 26  1  0  0  0  0
  6  1  1  0  0  0  0
  7  1  2  0  0  0  0
  7 14  1  0  0  0  0
  7 27  1  0  0  0  0
  8  3  2  0  0  0  0
  9 24  1  0  0  0  0
 10  9  3  0  0  0  0
 10 28  1  0  0  0  0
 11  4  2  0  0  0  0
 12 15  1  0  0  0  0
 13  6  2  0  0  0  0
 15 14  2  0  0  0  0
 15 29  1  0  0  0  0
 16 12  2  0  0  0  0
 16 19  1  0  0  0  0
 17  2  1  0  0  0  0
 17 30  1  0  0  0  0
 17 31  1  0  0  0  0
 18 17  1  0  0  0  0
 18 32  1  0  0  0  0
 19 21  2  0  0  0  0
 19 33  1  0  0  0  0
 20 18  2  0  0  0  0
 20 34  1  0  0  0  0
 20 35  1  0  0  0  0
 21 14  1  0  0  0  0
 21 36  1  0  0  0  0
 22 12  1  0  0  0  0
 23 16  1  0  0  0  0
 24 23  1  0  0  0  0
 24 37  1  0  0  0  0
 24 38  1  0  0  0  0
 25 22  1  0  0  0  0
 25 39  1  0  0  0  0
 25 40  1  0  0  0  0
 25 41  1  0  0  0  0
M  END
>  <Mol Weight>
356.396

>  <Click ID>
CLK028_B04

>  <Plant Activity>
0

>  <Yeast Activity>
1

$$$$

 OpenBabel11211205583D

 42 44  0  0  0  0  0  0  0  0999 V2000
    0.8302    9.3942   -1.4076 C   0  0  0  0  0  0  0  0  0  0  0  0
   -1.3417   11.0194   -2.2490 C   0  0  0  0  0  0  0  0  0  0  0  0
   -0.3266   10.6115   -3.1373 N   0  0  0  0  0  0  0  0  0  0  0  0
   -1.3346   10.3941   -0.9834 N   0  0  0  0  0  0  0  0  0  0  0  0
    0.6621    9.6788   -2.8402 C   0  0  0  0  0  0  0  0  0  0  0  0
   -0.2988    9.6058   -0.4868 C   0  0  0  0  0  0  0  0  0  0  0  0
    1.9916    8.9684   -0.8718 C   0  0  0  0  0  0  0  0  0  0  0  0
    3.2747    8.7976   -1.5843 C   0  0  0  0  0  0  0  0  0  0  0  0
    3.6759    7.5232   -2.0750 C   0  0  0  0  0  0  0  0  0  0  0  0
   -2.5145   12.1717   -2.6837 S   0  0  0  0  0  0  0  0  0  0  0  0
    3.0695   13.3628   -1.8737 C   0  0  0  0  0  0  0  0  0  0  0  0
    2.2595   14.2418   -1.7672 C   0  0  0  0  0  0  0  0  0  0  0  0
   -0.2877    9.1249    0.6461 O   0  0  0  0  0  0  0  0  0  0  0  0
    1.3278    9.1029   -3.6968 O   0  0  0  0  0  0  0  0  0  0  0  0
    4.0972    9.9293   -1.7750 C   0  0  0  0  0  0  0  0  0  0  0  0
    4.9320    7.4097   -2.7191 C   0  0  0  0  0  0  0  0  0  0  0  0
   -0.3324   11.0698   -4.5301 C   0  0  0  0  0  0  0  0  0  0  0  0
   -2.4408   10.6178   -0.0459 C   0  0  0  0  0  0  0  0  0  0  0  0
    5.3475    9.7844   -2.3741 C   0  0  0  0  0  0  0  0  0  0  0  0
    5.7565    8.5364   -2.8437 C   0  0  0  0  0  0  0  0  0  0  0  0
    3.6151   11.1341   -1.3200 O   0  0  0  0  0  0  0  0  0  0  0  0
    4.0633   12.2898   -2.0306 C   0  0  0  0  0  0  0  0  0  0  0  0
    2.8820    6.3556   -1.9738 C   0  0  0  0  0  0  0  0  0  0  0  0
    5.3483    6.1708   -3.2341 C   0  0  0  0  0  0  0  0  0  0  0  0
    3.3047    5.1332   -2.4999 C   0  0  0  0  0  0  0  0  0  0  0  0
    4.5381    5.0413   -3.1303 C   0  0  0  0  0  0  0  0  0  0  0  0
    2.0745    8.7809    0.1980 H   0  0  0  0  0  0  0  0  0  0  0  0
    1.5417   15.0255   -1.6780 H   0  0  0  0  0  0  0  0  0  0  0  0
    0.5137   10.6887   -5.1088 H   0  0  0  0  0  0  0  0  0  0  0  0
   -0.2774   12.1626   -4.5529 H   0  0  0  0  0  0  0  0  0  0  0  0
   -1.2566   10.7386   -5.0145 H   0  0  0  0  0  0  0  0  0  0  0  0
   -2.4039   11.6539    0.3058 H   0  0  0  0  0  0  0  0  0  0  0  0
   -2.4004    9.9586    0.8256 H   0  0  0  0  0  0  0  0  0  0  0  0
   -3.3957   10.4360   -0.5492 H   0  0  0  0  0  0  0  0  0  0  0  0
    6.0284   10.6220   -2.4845 H   0  0  0  0  0  0  0  0  0  0  0  0
    6.7313    8.4521   -3.3202 H   0  0  0  0  0  0  0  0  0  0  0  0
    4.1802   12.0828   -3.1017 H   0  0  0  0  0  0  0  0  0  0  0  0
    5.0252   12.6124   -1.6165 H   0  0  0  0  0  0  0  0  0  0  0  0
    1.9052    6.3925   -1.4969 H   0  0  0  0  0  0  0  0  0  0  0  0
    6.3099    6.0780   -3.7342 H   0  0  0  0  0  0  0  0  0  0  0  0
    2.6637    4.2593   -2.4221 H   0  0  0  0  0  0  0  0  0  0  0  0
    4.8688    4.0938   -3.5464 H   0  0  0  0  0  0  0  0  0  0  0  0
  2  3  1  0  0  0  0
  2  4  1  0  0  0  0
  3  5  1  0  0  0  0
  4  6  1  0  0  0  0
  5  1  1  0  0  0  0
  6  1  1  0  0  0  0
  7  1  2  0  0  0  0
  7  8  1  0  0  0  0
  7 27  1  0  0  0  0
  9  8  1  0  0  0  0
 10  2  2  0  0  0  0
 11 22  1  0  0  0  0
 12 11  3  0  0  0  0
 12 28  1  0  0  0  0
 13  6  2  0  0  0  0
 14  5  2  0  0  0  0
 15  8  2  0  0  0  0
 16 20  1  0  0  0  0
 16  9  1  0  0  0  0
 17  3  1  0  0  0  0
 17 29  1  0  0  0  0
 17 30  1  0  0  0  0
 17 31  1  0  0  0  0
 18  4  1  0  0  0  0
 18 32  1  0  0  0  0
 18 33  1  0  0  0  0
 18 34  1  0  0  0  0
 19 15  1  0  0  0  0
 19 35  1  0  0  0  0
 20 19  2  0  0  0  0
 20 36  1  0  0  0  0
 21 15  1  0  0  0  0
 22 21  1  0  0  0  0
 22 37  1  0  0  0  0
 22 38  1  0  0  0  0
 23  9  2  0  0  0  0
 23 39  1  0  0  0  0
 24 16  2  0  0  0  0
 24 26  1  0  0  0  0
 24 40  1  0  0  0  0
 25 23  1  0  0  0  0
 25 41  1  0  0  0  0
 26 25  2  0  0  0  0
 26 42  1  0  0  0  0
M  END
>  <Mol Weight>
364.418

>  <Click ID>
CLK028_A04

>  <Plant Activity>
0

>  <Yeast Activity>
1

$$$$

 OpenBabel11211205583D

 27 28  0  0  0  0  0  0  0  0999 V2000
   -1.0493   -1.0458   -0.3744 N   0  0  0  0  0  0  0  0  0  0  0  0
   -0.0976   -1.4581    0.5165 C   0  0  0  0  0  0  0  0  0  0  0  0
    0.2947    0.8722   -0.3426 C   0  0  0  0  0  0  0  0  0  0  0  0
   -0.9207    0.2167   -0.8956 C   0  0  0  0  0  0  0  0  0  0  0  0
    1.0854   -0.1822    0.7604 S   0  0  0  0  0  0  0  0  0  0  0  0
    0.6607    2.1085   -0.7071 C   0  0  0  0  0  0  0  0  0  0  0  0
    1.8577    2.8107   -0.2244 C   0  0  0  0  0  0  0  0  0  0  0  0
    1.8540    3.6197    0.9254 C   0  0  0  0  0  0  0  0  0  0  0  0
    3.0333    4.2563    1.3386 C   0  0  0  0  0  0  0  0  0  0  0  0
   -3.2939   -1.6907    0.1716 C   0  0  0  0  0  0  0  0  0  0  0  0
    4.2147    4.0950    0.6108 C   0  0  0  0  0  0  0  0  0  0  0  0
   -4.2267   -1.5220    0.9093 C   0  0  0  0  0  0  0  0  0  0  0  0
   -0.0230   -2.5401    1.0749 O   0  0  0  0  0  0  0  0  0  0  0  0
    3.0482    2.6550   -0.9485 C   0  0  0  0  0  0  0  0  0  0  0  0
   -1.6678    0.7536   -1.7003 O   0  0  0  0  0  0  0  0  0  0  0  0
    4.2136    3.2956   -0.5287 C   0  0  0  0  0  0  0  0  0  0  0  0
   -2.1550   -1.9022   -0.7347 C   0  0  0  0  0  0  0  0  0  0  0  0
    3.0957    5.4731    3.0430 I   0  0  0  0  0  0  0  0  0  0  0  0
    0.7115    3.8088    1.6582 O   0  0  0  0  0  0  0  0  0  0  0  0
    5.6649    3.0962   -1.4318 Cl  0  0  0  0  0  0  0  0  0  0  0  0
    0.0657    2.6654   -1.4301 H   0  0  0  0  0  0  0  0  0  0  0  0
    5.1324    4.5865    0.9233 H   0  0  0  0  0  0  0  0  0  0  0  0
   -5.0571   -1.3767    1.5621 H   0  0  0  0  0  0  0  0  0  0  0  0
    3.0717    2.0336   -1.8414 H   0  0  0  0  0  0  0  0  0  0  0  0
   -1.8343   -2.9490   -0.6908 H   0  0  0  0  0  0  0  0  0  0  0  0
   -2.4569   -1.6884   -1.7660 H   0  0  0  0  0  0  0  0  0  0  0  0
   -0.0311    3.3376    1.2494 H   0  0  0  0  0  0  0  0  0  0  0  0
  2  1  1  0  0  0  0
  3  4  1  0  0  0  0
  4  1  1  0  0  0  0
  5  2  1  0  0  0  0
  5  3  1  0  0  0  0
  6  3  2  0  0  0  0
  6  7  1  0  0  0  0
  6 21  1  0  0  0  0
  8  7  1  0  0  0  0
  9  8  2  0  0  0  0
  9 11  1  0  0  0  0
 10 17  1  0  0  0  0
 11 16  2  0  0  0  0
 11 22  1  0  0  0  0
 12 10  3  0  0  0  0
 12 23  1  0  0  0  0
 13  2  2  0  0  0  0
 14  7  2  0  0  0  0
 14 24  1  0  0  0  0
 15  4  2  0  0  0  0
 16 14  1  0  0  0  0
 17  1  1  0  0  0  0
 17 25  1  0  0  0  0
 17 26  1  0  0  0  0
 18  9  1  0  0  0  0
 19  8  1  0  0  0  0
 19 27  1  0  0  0  0
 20 16  1  0  0  0  0
M  END
>  <Mol Weight>
419.622

>  <Click ID>
CLK027_A08

>  <Plant Activity>
0

>  <Yeast Activity>
1

$$$$

 OpenBabel11211205583D

 27 28  0  0  0  0  0  0  0  0999 V2000
    0.6239   -0.3327    1.5206 N   0  0  0  0  0  0  0  0  0  0  0  0
   -0.7007   -0.4632    1.2150 C   0  0  0  0  0  0  0  0  0  0  0  0
    1.3419    0.6271    0.8474 C   0  0  0  0  0  0  0  0  0  0  0  0
    0.4566    1.3345   -0.1247 C   0  0  0  0  0  0  0  0  0  0  0  0
   -1.1412    0.6840   -0.0359 S   0  0  0  0  0  0  0  0  0  0  0  0
    0.7852    2.3283   -0.9621 C   0  0  0  0  0  0  0  0  0  0  0  0
    1.7701   -2.4089    1.8654 C   0  0  0  0  0  0  0  0  0  0  0  0
    2.1944   -3.4033    1.3447 C   0  0  0  0  0  0  0  0  0  0  0  0
    4.3144    2.9527   -2.0900 C   0  0  0  0  0  0  0  0  0  0  0  0
   -1.5061   -1.2315    1.7147 O   0  0  0  0  0  0  0  0  0  0  0  0
    2.5249    0.8782    1.0216 O   0  0  0  0  0  0  0  0  0  0  0  0
    2.1174    2.9213   -1.0837 C   0  0  0  0  0  0  0  0  0  0  0  0
    1.2489   -1.1887    2.5017 C   0  0  0  0  0  0  0  0  0  0  0  0
    4.6599    4.0492   -1.2972 C   0  0  0  0  0  0  0  0  0  0  0  0
    3.0437    2.3871   -1.9874 C   0  0  0  0  0  0  0  0  0  0  0  0
    3.7440    4.5864   -0.4000 C   0  0  0  0  0  0  0  0  0  0  0  0
    5.4501    2.2911   -3.2067 Cl  0  0  0  0  0  0  0  0  0  0  0  0
    2.4709    4.0223   -0.2925 C   0  0  0  0  0  0  0  0  0  0  0  0
    5.8935    4.6360   -1.3652 O   0  0  0  0  0  0  0  0  0  0  0  0
    0.0395    2.7629   -1.6247 H   0  0  0  0  0  0  0  0  0  0  0  0
    2.5722   -4.2865    0.8826 H   0  0  0  0  0  0  0  0  0  0  0  0
    0.5159   -1.4556    3.2714 H   0  0  0  0  0  0  0  0  0  0  0  0
    2.0655   -0.6469    2.9919 H   0  0  0  0  0  0  0  0  0  0  0  0
    2.7810    1.5309   -2.6029 H   0  0  0  0  0  0  0  0  0  0  0  0
    4.0216    5.4358    0.2178 H   0  0  0  0  0  0  0  0  0  0  0  0
    1.7641    4.4438    0.4187 H   0  0  0  0  0  0  0  0  0  0  0  0
    6.4176    4.1256   -2.0105 H   0  0  0  0  0  0  0  0  0  0  0  0
  2  1  1  0  0  0  0
  3  1  1  0  0  0  0
  4  3  1  0  0  0  0
  5  2  1  0  0  0  0
  5  4  1  0  0  0  0
  6  4  2  0  0  0  0
  6 12  1  0  0  0  0
  6 20  1  0  0  0  0
  7 13  1  0  0  0  0
  8  7  3  0  0  0  0
  8 21  1  0  0  0  0
  9 15  1  0  0  0  0
 10  2  2  0  0  0  0
 11  3  2  0  0  0  0
 13  1  1  0  0  0  0
 13 22  1  0  0  0  0
 13 23  1  0  0  0  0
 14  9  2  0  0  0  0
 14 16  1  0  0  0  0
 15 12  2  0  0  0  0
 15 24  1  0  0  0  0
 16 18  2  0  0  0  0
 16 25  1  0  0  0  0
 17  9  1  0  0  0  0
 18 12  1  0  0  0  0
 18 26  1  0  0  0  0
 19 14  1  0  0  0  0
 19 27  1  0  0  0  0
M  END
>  <Mol Weight>
293.726

>  <Click ID>
CLK026_E07

>  <Plant Activity>
0

>  <Yeast Activity>
1

$$$$

 OpenBabel11211205583D

 40 42  0  0  0  0  0  0  0  0999 V2000
   -0.2848   -0.4677    2.6888 N   0  0  0  0  0  0  0  0  0  0  0  0
   -0.3317    0.8738    3.0946 C   0  0  0  0  0  0  0  0  0  0  0  0
   -1.1391    0.1543    0.4869 C   0  0  0  0  0  0  0  0  0  0  0  0
   -0.4779   -0.8533    1.3512 C   0  0  0  0  0  0  0  0  0  0  0  0
   -0.5758    1.8029    2.1095 N   0  0  0  0  0  0  0  0  0  0  0  0
   -1.0552    1.5762    0.8522 C   0  0  0  0  0  0  0  0  0  0  0  0
   -1.8564   -0.1592   -0.6100 C   0  0  0  0  0  0  0  0  0  0  0  0
    0.0585   -1.5410    3.5938 C   0  0  0  0  0  0  0  0  0  0  0  0
   -0.2063    1.5173    4.6434 S   0  0  0  0  0  0  0  0  0  0  0  0
   -4.4337   -6.9358   -3.4040 C   0  0  0  0  0  0  0  0  0  0  0  0
   -4.6331   -7.7354   -4.2811 C   0  0  0  0  0  0  0  0  0  0  0  0
   -0.0802   -1.9169    0.8772 O   0  0  0  0  0  0  0  0  0  0  0  0
   -1.4420    2.4949    0.1401 O   0  0  0  0  0  0  0  0  0  0  0  0
   -2.1483   -1.5128   -1.0867 C   0  0  0  0  0  0  0  0  0  0  0  0
   -0.6924   -2.7333    3.5655 C   0  0  0  0  0  0  0  0  0  0  0  0
    1.1428   -1.4604    4.4809 C   0  0  0  0  0  0  0  0  0  0  0  0
    0.6706   -3.6776    5.3053 C   0  0  0  0  0  0  0  0  0  0  0  0
   -2.7294   -4.0927   -2.0222 C   0  0  0  0  0  0  0  0  0  0  0  0
    1.4429   -2.5240    5.3391 C   0  0  0  0  0  0  0  0  0  0  0  0
   -0.3915   -3.7949    4.4216 C   0  0  0  0  0  0  0  0  0  0  0  0
    0.9612   -4.6933    6.1278 F   0  0  0  0  0  0  0  0  0  0  0  0
   -1.3995   -2.0658   -2.1268 C   0  0  0  0  0  0  0  0  0  0  0  0
   -3.1739   -2.2638   -0.5008 C   0  0  0  0  0  0  0  0  0  0  0  0
   -3.4587   -3.5539   -0.9620 C   0  0  0  0  0  0  0  0  0  0  0  0
   -1.6869   -3.3532   -2.5847 C   0  0  0  0  0  0  0  0  0  0  0  0
   -4.1983   -5.9321   -2.3582 C   0  0  0  0  0  0  0  0  0  0  0  0
   -2.9289   -5.3219   -2.5856 O   0  0  0  0  0  0  0  0  0  0  0  0
   -0.6111    2.7721    2.4033 H   0  0  0  0  0  0  0  0  0  0  0  0
   -2.3182    0.6225   -1.2127 H   0  0  0  0  0  0  0  0  0  0  0  0
   -4.8048   -8.4291   -5.0695 H   0  0  0  0  0  0  0  0  0  0  0  0
   -1.5281   -2.8497    2.8781 H   0  0  0  0  0  0  0  0  0  0  0  0
    1.7989   -0.5944    4.4961 H   0  0  0  0  0  0  0  0  0  0  0  0
    2.2823   -2.4617    6.0247 H   0  0  0  0  0  0  0  0  0  0  0  0
   -0.9755   -4.7094    4.3969 H   0  0  0  0  0  0  0  0  0  0  0  0
   -0.5834   -1.5099   -2.5811 H   0  0  0  0  0  0  0  0  0  0  0  0
   -3.7610   -1.8541    0.3175 H   0  0  0  0  0  0  0  0  0  0  0  0
   -4.2486   -4.1121   -0.4705 H   0  0  0  0  0  0  0  0  0  0  0  0
   -1.0982   -3.7807   -3.3928 H   0  0  0  0  0  0  0  0  0  0  0  0
   -5.0086   -5.1943   -2.4036 H   0  0  0  0  0  0  0  0  0  0  0  0
   -4.1967   -6.4105   -1.3722 H   0  0  0  0  0  0  0  0  0  0  0  0
  1  8  1  0  0  0  0
  2  1  1  0  0  0  0
  3  4  1  0  0  0  0
  4  1  1  0  0  0  0
  5  2  1  0  0  0  0
  5  6  1  0  0  0  0
  5 28  1  0  0  0  0
  6  3  1  0  0  0  0
  7  3  2  0  0  0  0
  7 14  1  0  0  0  0
  7 29  1  0  0  0  0
  9  2  2  0  0  0  0
 10 26  1  0  0  0  0
 11 10  3  0  0  0  0
 11 30  1  0  0  0  0
 12  4  2  0  0  0  0
 13  6  2  0  0  0  0
 15  8  2  0  0  0  0
 15 31  1  0  0  0  0
 16  8  1  0  0  0  0
 16 32  1  0  0  0  0
 17 19  1  0  0  0  0
 18 24  2  0  0  0  0
 19 16  2  0  0  0  0
 19 33  1  0  0  0  0
 20 15  1  0  0  0  0
 20 17  2  0  0  0  0
 20 34  1  0  0  0  0
 21 17  1  0  0  0  0
 22 14  1  0  0  0  0
 22 35  1  0  0  0  0
 23 14  2  0  0  0  0
 23 36  1  0  0  0  0
 24 23  1  0  0  0  0
 24 37  1  0  0  0  0
 25 22  2  0  0  0  0
 25 18  1  0  0  0  0
 25 38  1  0  0  0  0
 26 27  1  0  0  0  0
 26 39  1  0  0  0  0
 26 40  1  0  0  0  0
 27 18  1  0  0  0  0
M  END
>  <Mol Weight>
380.392

>  <Click ID>
CLK026_B08

>  <Plant Activity>
0

>  <Yeast Activity>
1

>  <Yeast Comment>
second antifungal hit with this five membered di-amide-tricarbonyl structure. See CLK023_B05

$$$$

 OpenBabel11211205583D

 32 33  0  0  0  0  0  0  0  0999 V2000
    9.1599   -0.9711    0.5880 C   0  0  0  0  0  0  0  0  0  0  0  0
    4.7269   -3.8063   -0.2086 C   0  0  0  0  0  0  0  0  0  0  0  0
   10.3310   -1.2053    0.4644 C   0  0  0  0  0  0  0  0  0  0  0  0
    3.4613   -4.5766   -0.3486 C   0  0  0  0  0  0  0  0  0  0  0  0
    4.5037   -2.5413    0.2962 N   0  0  0  0  0  0  0  0  0  0  0  0
    3.4189   -5.6067   -1.2075 C   0  0  0  0  0  0  0  0  0  0  0  0
    5.4754   -1.5520    0.5643 C   0  0  0  0  0  0  0  0  0  0  0  0
    5.7970   -4.2967   -0.5427 O   0  0  0  0  0  0  0  0  0  0  0  0
    7.7558   -0.7314    0.7237 C   0  0  0  0  0  0  0  0  0  0  0  0
    6.8500   -1.7606    0.4370 C   0  0  0  0  0  0  0  0  0  0  0  0
    2.2381   -6.4498   -1.4226 C   0  0  0  0  0  0  0  0  0  0  0  0
    5.9201    0.7335    1.2686 C   0  0  0  0  0  0  0  0  0  0  0  0
    5.0185   -0.2961    0.9862 C   0  0  0  0  0  0  0  0  0  0  0  0
    7.2900    0.5162    1.1389 C   0  0  0  0  0  0  0  0  0  0  0  0
    1.4257   -6.8783   -0.3651 C   0  0  0  0  0  0  0  0  0  0  0  0
    1.9540   -6.8976   -2.7191 C   0  0  0  0  0  0  0  0  0  0  0  0
    0.3360   -7.7192   -0.6041 C   0  0  0  0  0  0  0  0  0  0  0  0
    0.8637   -7.7374   -2.9577 C   0  0  0  0  0  0  0  0  0  0  0  0
    0.0543   -8.1465   -1.9002 C   0  0  0  0  0  0  0  0  0  0  0  0
   11.3647   -1.4346    0.3490 H   0  0  0  0  0  0  0  0  0  0  0  0
    2.6115   -4.2886    0.2555 H   0  0  0  0  0  0  0  0  0  0  0  0
    3.5431   -2.2658    0.4492 H   0  0  0  0  0  0  0  0  0  0  0  0
    4.2908   -5.8497   -1.8139 H   0  0  0  0  0  0  0  0  0  0  0  0
    7.2510   -2.7179    0.1218 H   0  0  0  0  0  0  0  0  0  0  0  0
    5.5536    1.7060    1.5916 H   0  0  0  0  0  0  0  0  0  0  0  0
    3.9550   -0.0987    1.0958 H   0  0  0  0  0  0  0  0  0  0  0  0
    7.9901    1.3182    1.3601 H   0  0  0  0  0  0  0  0  0  0  0  0
    1.6428   -6.5816    0.6578 H   0  0  0  0  0  0  0  0  0  0  0  0
    2.5790   -6.5942   -3.5565 H   0  0  0  0  0  0  0  0  0  0  0  0
   -0.2853   -8.0500    0.2240 H   0  0  0  0  0  0  0  0  0  0  0  0
    0.6519   -8.0767   -3.9684 H   0  0  0  0  0  0  0  0  0  0  0  0
   -0.7896   -8.8059   -2.0846 H   0  0  0  0  0  0  0  0  0  0  0  0
  1  9  1  0  0  0  0
  2  5  1  0  0  0  0
  3  1  3  0  0  0  0
  3 20  1  0  0  0  0
  4  2  1  0  0  0  0
  4 21  1  0  0  0  0
  5  7  1  0  0  0  0
  5 22  1  0  0  0  0
  6  4  2  0  0  0  0
  6 11  1  0  0  0  0
  6 23  1  0  0  0  0
  7 10  2  0  0  0  0
  8  2  2  0  0  0  0
 10  9  1  0  0  0  0
 10 24  1  0  0  0  0
 12 14  1  0  0  0  0
 12 25  1  0  0  0  0
 13  7  1  0  0  0  0
 13 12  2  0  0  0  0
 13 26  1  0  0  0  0
 14  9  2  0  0  0  0
 14 27  1  0  0  0  0
 15 11  2  0  0  0  0
 15 28  1  0  0  0  0
 16 11  1  0  0  0  0
 16 29  1  0  0  0  0
 17 15  1  0  0  0  0
 17 19  2  0  0  0  0
 17 30  1  0  0  0  0
 18 16  2  0  0  0  0
 18 31  1  0  0  0  0
 19 18  1  0  0  0  0
 19 32  1  0  0  0  0
M  END
>  <Mol Weight>
247.2912

>  <Click ID>
CLK025_G04

>  <Plant Activity>
1

>  <Yeast Activity>
1

>  <Bioactivity Commet>
yeast-plant overlap

>  <Plant Comment>
auxin-like

$$$$

 OpenBabel11211205583D

 42 44  0  0  0  0  0  0  0  0999 V2000
   -1.9594   -0.7902   -0.2092 N   0  0  0  0  0  0  0  0  0  0  0  0
   -0.8849   -1.2877    0.4717 C   0  0  0  0  0  0  0  0  0  0  0  0
   -1.8766    0.5039   -0.6571 C   0  0  0  0  0  0  0  0  0  0  0  0
   -0.5380    1.0712   -0.3250 C   0  0  0  0  0  0  0  0  0  0  0  0
    0.3447   -0.0449    0.6331 S   0  0  0  0  0  0  0  0  0  0  0  0
    3.1451    8.7983   -6.7372 N   0  3  0  0  0  0  0  0  0  0  0  0
    3.5327    4.3635   -1.3243 C   0  0  0  0  0  0  0  0  0  0  0  0
   -0.1647    2.2549   -0.8319 C   0  0  0  0  0  0  0  0  0  0  0  0
    2.3257    5.0510   -1.1468 C   0  0  0  0  0  0  0  0  0  0  0  0
    3.5562    2.9802   -1.0986 C   0  0  0  0  0  0  0  0  0  0  0  0
    1.1366    2.9475   -0.8213 C   0  0  0  0  0  0  0  0  0  0  0  0
    4.6555    5.0588   -1.6995 O   0  0  0  0  0  0  0  0  0  0  0  0
   -4.1055   -1.5238    0.5733 C   0  0  0  0  0  0  0  0  0  0  0  0
    3.6171    7.7814   -5.8020 C   0  0  0  0  0  0  0  0  0  0  0  0
   -4.9263   -1.4561    1.4458 C   0  0  0  0  0  0  0  0  0  0  0  0
    2.8715    8.4309   -7.8887 O   0  5  0  0  0  0  0  0  0  0  0  0
   -0.7318   -2.4234    0.8928 O   0  0  0  0  0  0  0  0  0  0  0  0
    2.3622    2.2767   -0.8895 C   0  0  0  0  0  0  0  0  0  0  0  0
    1.1379    4.3461   -0.9109 C   0  0  0  0  0  0  0  0  0  0  0  0
    3.0506    9.9604   -6.3192 O   0  0  0  0  0  0  0  0  0  0  0  0
   -2.7306    1.1053   -1.2937 O   0  0  0  0  0  0  0  0  0  0  0  0
   -3.1075   -1.6143   -0.5023 C   0  0  0  0  0  0  0  0  0  0  0  0
    4.5322    8.1354   -4.8052 C   0  0  0  0  0  0  0  0  0  0  0  0
    3.1482    6.4694   -5.9220 C   0  0  0  0  0  0  0  0  0  0  0  0
    2.1942    7.1430   -1.2187 I   0  0  0  0  0  0  0  0  0  0  0  0
    5.3398    1.8644   -1.0110 I   0  0  0  0  0  0  0  0  0  0  0  0
    5.0291    4.7778   -3.0625 C   0  0  0  0  0  0  0  0  0  0  0  0
    4.5270    5.8344   -4.0209 C   0  0  0  0  0  0  0  0  0  0  0  0
    3.6015    5.5006   -5.0250 C   0  0  0  0  0  0  0  0  0  0  0  0
    4.9893    7.1561   -3.9215 C   0  0  0  0  0  0  0  0  0  0  0  0
   -0.9161    2.7989   -1.4104 H   0  0  0  0  0  0  0  0  0  0  0  0
   -5.6581   -1.3996    2.2192 H   0  0  0  0  0  0  0  0  0  0  0  0
    2.4024    1.1941   -0.8162 H   0  0  0  0  0  0  0  0  0  0  0  0
    0.1983    4.8907   -0.8252 H   0  0  0  0  0  0  0  0  0  0  0  0
   -2.7846   -2.6538   -0.6267 H   0  0  0  0  0  0  0  0  0  0  0  0
   -3.5525   -1.2920   -1.4505 H   0  0  0  0  0  0  0  0  0  0  0  0
    4.8938    9.1568   -4.7090 H   0  0  0  0  0  0  0  0  0  0  0  0
    2.4351    6.1954   -6.6967 H   0  0  0  0  0  0  0  0  0  0  0  0
    4.6973    3.7883   -3.4017 H   0  0  0  0  0  0  0  0  0  0  0  0
    6.1248    4.7633   -3.1047 H   0  0  0  0  0  0  0  0  0  0  0  0
    3.2289    4.4817   -5.1160 H   0  0  0  0  0  0  0  0  0  0  0  0
    5.6989    7.4266   -3.1409 H   0  0  0  0  0  0  0  0  0  0  0  0
  2  1  1  0  0  0  0
  3  1  1  0  0  0  0
  4  3  1  0  0  0  0
  5  2  1  0  0  0  0
  5  4  1  0  0  0  0
  6 14  1  0  0  0  0
  7  9  1  0  0  0  0
  8  4  2  0  0  0  0
  8 11  1  0  0  0  0
  8 31  1  0  0  0  0
  9 19  2  0  0  0  0
 10  7  2  0  0  0  0
 10 18  1  0  0  0  0
 12  7  1  0  0  0  0
 13 22  1  0  0  0  0
 14 23  2  0  0  0  0
 15 13  3  0  0  0  0
 15 32  1  0  0  0  0
 16  6  1  0  0  0  0
 17  2  2  0  0  0  0
 18 11  2  0  0  0  0
 18 33  1  0  0  0  0
 19 11  1  0  0  0  0
 19 34  1  0  0  0  0
 20  6  2  0  0  0  0
 21  3  2  0  0  0  0
 22  1  1  0  0  0  0
 22 35  1  0  0  0  0
 22 36  1  0  0  0  0
 23 30  1  0  0  0  0
 23 37  1  0  0  0  0
 24 14  1  0  0  0  0
 24 29  2  0  0  0  0
 24 38  1  0  0  0  0
 25  9  1  0  0  0  0
 26 10  1  0  0  0  0
 27 12  1  0  0  0  0
 27 28  1  0  0  0  0
 27 39  1  0  0  0  0
 27 40  1  0  0  0  0
 29 28  1  0  0  0  0
 29 41  1  0  0  0  0
 30 28  2  0  0  0  0
 30 42  1  0  0  0  0
M  CHG  2   6   1  16  -1
M  END
>  <Mol Weight>
646.194

>  <Click ID>
CLK024_B04

>  <Plant Activity>
0

>  <Yeast Activity>
1

$$$$

 OpenBabel11211205583D

 27 28  0  0  0  0  0  0  0  0999 V2000
   -1.2336   -0.8664   -0.4202 N   0  0  0  0  0  0  0  0  0  0  0  0
   -0.7934   -1.0768    0.8571 C   0  0  0  0  0  0  0  0  0  0  0  0
    0.2652    0.9243   -0.2361 C   0  0  0  0  0  0  0  0  0  0  0  0
   -0.7139    0.2081   -1.0969 C   0  0  0  0  0  0  0  0  0  0  0  0
    0.3951    0.1420    1.2881 S   0  0  0  0  0  0  0  0  0  0  0  0
    0.9103    2.0204   -0.6580 C   0  0  0  0  0  0  0  0  0  0  0  0
    1.8724    2.7906    0.1394 C   0  0  0  0  0  0  0  0  0  0  0  0
   -1.5234   -2.8578   -1.7242 C   0  0  0  0  0  0  0  0  0  0  0  0
   -0.9773   -3.7665   -2.2904 C   0  0  0  0  0  0  0  0  0  0  0  0
   -1.1495   -1.9517    1.6288 O   0  0  0  0  0  0  0  0  0  0  0  0
   -0.9954    0.5586   -2.2341 O   0  0  0  0  0  0  0  0  0  0  0  0
    3.2469    2.5126    0.1430 C   0  0  0  0  0  0  0  0  0  0  0  0
   -2.1983   -1.7497   -1.0321 C   0  0  0  0  0  0  0  0  0  0  0  0
    1.3936    3.8441    0.9308 C   0  0  0  0  0  0  0  0  0  0  0  0
    4.1264    3.2655    0.9200 C   0  0  0  0  0  0  0  0  0  0  0  0
    2.2778    4.5955    1.7070 C   0  0  0  0  0  0  0  0  0  0  0  0
    3.6415    4.3107    1.7055 C   0  0  0  0  0  0  0  0  0  0  0  0
    1.6770    5.8863    2.6735 Cl  0  0  0  0  0  0  0  0  0  0  0  0
    3.8085    1.5119   -0.6000 O   0  0  0  0  0  0  0  0  0  0  0  0
    0.7240    2.4175   -1.6551 H   0  0  0  0  0  0  0  0  0  0  0  0
   -0.4983   -4.5753   -2.7928 H   0  0  0  0  0  0  0  0  0  0  0  0
   -2.8075   -1.1831   -1.7451 H   0  0  0  0  0  0  0  0  0  0  0  0
   -2.8687   -2.1462   -0.2612 H   0  0  0  0  0  0  0  0  0  0  0  0
    0.3326    4.0822    0.9465 H   0  0  0  0  0  0  0  0  0  0  0  0
    5.1890    3.0366    0.9121 H   0  0  0  0  0  0  0  0  0  0  0  0
    4.3298    4.8953    2.3099 H   0  0  0  0  0  0  0  0  0  0  0  0
    3.1146    1.0570   -1.1034 H   0  0  0  0  0  0  0  0  0  0  0  0
  2  1  1  0  0  0  0
  3  4  1  0  0  0  0
  4  1  1  0  0  0  0
  5  2  1  0  0  0  0
  5  3  1  0  0  0  0
  6  3  2  0  0  0  0
  6  7  1  0  0  0  0
  6 20  1  0  0  0  0
  8 13  1  0  0  0  0
  9  8  3  0  0  0  0
  9 21  1  0  0  0  0
 10  2  2  0  0  0  0
 11  4  2  0  0  0  0
 12  7  2  0  0  0  0
 13  1  1  0  0  0  0
 13 22  1  0  0  0  0
 13 23  1  0  0  0  0
 14  7  1  0  0  0  0
 14 24  1  0  0  0  0
 15 12  1  0  0  0  0
 15 17  2  0  0  0  0
 15 25  1  0  0  0  0
 16 14  2  0  0  0  0
 17 16  1  0  0  0  0
 17 26  1  0  0  0  0
 18 16  1  0  0  0  0
 19 12  1  0  0  0  0
 19 27  1  0  0  0  0
M  END
>  <Mol Weight>
293.726

>  <Click ID>
CLK023_E10

>  <Plant Activity>
0

>  <Yeast Activity>
1

$$$$

 OpenBabel11211205583D

 27 28  0  0  0  0  0  0  0  0999 V2000
   -1.1922   -0.9940   -0.4098 N   0  0  0  0  0  0  0  0  0  0  0  0
   -0.5466   -1.2863    0.7595 C   0  0  0  0  0  0  0  0  0  0  0  0
    0.2997    0.8106   -0.3395 C   0  0  0  0  0  0  0  0  0  0  0  0
   -0.7991    0.1360   -1.0814 C   0  0  0  0  0  0  0  0  0  0  0  0
    0.6844   -0.0756    1.0814 S   0  0  0  0  0  0  0  0  0  0  0  0
    0.8562    1.9484   -0.7770 C   0  0  0  0  0  0  0  0  0  0  0  0
    1.9281    2.6801   -0.0881 C   0  0  0  0  0  0  0  0  0  0  0  0
    3.2913    2.4502   -0.3439 C   0  0  0  0  0  0  0  0  0  0  0  0
    4.2674    3.1737    0.3559 C   0  0  0  0  0  0  0  0  0  0  0  0
   -1.6703   -2.8892   -1.7986 C   0  0  0  0  0  0  0  0  0  0  0  0
    3.8937    4.1275    1.3060 C   0  0  0  0  0  0  0  0  0  0  0  0
   -1.2124   -3.7378   -2.5149 C   0  0  0  0  0  0  0  0  0  0  0  0
   -0.7629   -2.2215    1.5124 O   0  0  0  0  0  0  0  0  0  0  0  0
    1.5616    3.6400    0.8662 C   0  0  0  0  0  0  0  0  0  0  0  0
   -1.2635    0.5602   -2.1297 O   0  0  0  0  0  0  0  0  0  0  0  0
    2.5425    4.3544    1.5537 C   0  0  0  0  0  0  0  0  0  0  0  0
   -2.2351   -1.8524   -0.9209 C   0  0  0  0  0  0  0  0  0  0  0  0
    6.3150    2.8769    0.0246 I   0  0  0  0  0  0  0  0  0  0  0  0
    3.6947    1.5283   -1.2746 O   0  0  0  0  0  0  0  0  0  0  0  0
    2.0299    5.6459    2.8364 Br  0  0  0  0  0  0  0  0  0  0  0  0
    0.5066    2.4117   -1.6989 H   0  0  0  0  0  0  0  0  0  0  0  0
    4.6472    4.6913    1.8501 H   0  0  0  0  0  0  0  0  0  0  0  0
   -0.8112   -4.4941   -3.1505 H   0  0  0  0  0  0  0  0  0  0  0  0
    0.5108    3.8299    1.0753 H   0  0  0  0  0  0  0  0  0  0  0  0
   -2.9601   -1.2491   -1.4784 H   0  0  0  0  0  0  0  0  0  0  0  0
   -2.7636   -2.3216   -0.0837 H   0  0  0  0  0  0  0  0  0  0  0  0
    2.9233    1.1202   -1.6974 H   0  0  0  0  0  0  0  0  0  0  0  0
  2  1  1  0  0  0  0
  3  4  1  0  0  0  0
  4  1  1  0  0  0  0
  5  2  1  0  0  0  0
  5  3  1  0  0  0  0
  6  3  2  0  0  0  0
  6  7  1  0  0  0  0
  6 21  1  0  0  0  0
  8  7  2  0  0  0  0
  9  8  1  0  0  0  0
  9 11  2  0  0  0  0
 10 17  1  0  0  0  0
 11 16  1  0  0  0  0
 11 22  1  0  0  0  0
 12 10  3  0  0  0  0
 12 23  1  0  0  0  0
 13  2  2  0  0  0  0
 14  7  1  0  0  0  0
 14 24  1  0  0  0  0
 15  4  2  0  0  0  0
 16 14  2  0  0  0  0
 17  1  1  0  0  0  0
 17 25  1  0  0  0  0
 17 26  1  0  0  0  0
 18  9  1  0  0  0  0
 19  8  1  0  0  0  0
 19 27  1  0  0  0  0
 20 16  1  0  0  0  0
M  END
>  <Mol Weight>
464.073

>  <Click ID>
CLK023_C10

>  <Plant Activity>
0

>  <Yeast Activity>
1

$$$$

 OpenBabel11211205583D

 44 46  0  0  0  0  0  0  0  0999 V2000
   -1.4283   -2.5897    3.9863 N   0  0  0  0  0  0  0  0  0  0  0  0
   -1.3030   -1.1318    2.0220 C   0  0  0  0  0  0  0  0  0  0  0  0
   -0.9137   -2.4215    2.6868 C   0  0  0  0  0  0  0  0  0  0  0  0
   -1.8705   -1.4893    4.7354 C   0  0  0  0  0  0  0  0  0  0  0  0
   -2.0184   -0.3040    4.0785 N   0  0  0  0  0  0  0  0  0  0  0  0
   -2.2738   -0.3070    2.7511 C   0  0  0  0  0  0  0  0  0  0  0  0
   -0.6693   -0.7703    0.8847 C   0  0  0  0  0  0  0  0  0  0  0  0
   -0.5330    2.9373   -1.3384 C   0  0  0  0  0  0  0  0  0  0  0  0
   -1.7381    2.5016   -0.7650 C   0  0  0  0  0  0  0  0  0  0  0  0
    0.6170    2.1418   -1.1734 C   0  0  0  0  0  0  0  0  0  0  0  0
   -1.4186   -3.8987    4.6259 C   0  0  0  0  0  0  0  0  0  0  0  0
   -0.6831    0.5060    0.1325 C   0  0  0  0  0  0  0  0  0  0  0  0
   -0.2939    5.3467   -3.9970 C   0  0  0  0  0  0  0  0  0  0  0  0
   -2.1451   -1.4786    5.9349 O   0  0  0  0  0  0  0  0  0  0  0  0
   -0.7753    6.1209   -4.7769 C   0  0  0  0  0  0  0  0  0  0  0  0
   -0.2001   -3.2133    2.0730 O   0  0  0  0  0  0  0  0  0  0  0  0
   -1.8191    1.2815   -0.0817 C   0  0  0  0  0  0  0  0  0  0  0  0
    0.5271    0.9437   -0.4399 C   0  0  0  0  0  0  0  0  0  0  0  0
   -3.2641    0.2228    2.2744 O   0  0  0  0  0  0  0  0  0  0  0  0
   -2.3729   -4.2176    5.6155 C   0  0  0  0  0  0  0  0  0  0  0  0
   -0.5159   -4.9173    4.2776 C   0  0  0  0  0  0  0  0  0  0  0  0
   -3.5083    3.6416   -0.8886 I   0  0  0  0  0  0  0  0  0  0  0  0
   -0.5822    4.1514   -1.9790 O   0  0  0  0  0  0  0  0  0  0  0  0
   -1.5036   -6.4521    5.8703 C   0  0  0  0  0  0  0  0  0  0  0  0
    1.7759    2.5846   -1.7530 O   0  0  0  0  0  0  0  0  0  0  0  0
   -0.5563   -6.1801    4.8918 C   0  0  0  0  0  0  0  0  0  0  0  0
   -2.4135   -5.4728    6.2369 C   0  0  0  0  0  0  0  0  0  0  0  0
   -1.5548   -7.9976    6.6196 Cl  0  0  0  0  0  0  0  0  0  0  0  0
    0.3089    4.3726   -3.0709 C   0  0  0  0  0  0  0  0  0  0  0  0
    3.0072    1.9594   -1.4226 C   0  0  0  0  0  0  0  0  0  0  0  0
   -2.6005    0.3300    4.6119 H   0  0  0  0  0  0  0  0  0  0  0  0
    0.0543   -1.4773    0.4693 H   0  0  0  0  0  0  0  0  0  0  0  0
   -1.2055    6.8013   -5.4783 H   0  0  0  0  0  0  0  0  0  0  0  0
   -2.7915    0.9526    0.2652 H   0  0  0  0  0  0  0  0  0  0  0  0
    1.4073    0.3221   -0.3027 H   0  0  0  0  0  0  0  0  0  0  0  0
   -3.1422   -3.5092    5.9161 H   0  0  0  0  0  0  0  0  0  0  0  0
    0.2732   -4.7664    3.5470 H   0  0  0  0  0  0  0  0  0  0  0  0
    0.1622   -6.9415    4.5979 H   0  0  0  0  0  0  0  0  0  0  0  0
   -3.1654   -5.6708    6.9969 H   0  0  0  0  0  0  0  0  0  0  0  0
    0.4980    3.4490   -3.6296 H   0  0  0  0  0  0  0  0  0  0  0  0
    1.2480    4.7834   -2.6830 H   0  0  0  0  0  0  0  0  0  0  0  0
    3.7764    2.3889   -2.0727 H   0  0  0  0  0  0  0  0  0  0  0  0
    2.9935    0.8829   -1.6143 H   0  0  0  0  0  0  0  0  0  0  0  0
    3.2786    2.1799   -0.3861 H   0  0  0  0  0  0  0  0  0  0  0  0
  1 11  1  0  0  0  0
  2  3  1  0  0  0  0
  2  6  1  0  0  0  0
  3  1  1  0  0  0  0
  4  1  1  0  0  0  0
  5  4  1  0  0  0  0
  5 31  1  0  0  0  0
  6  5  1  0  0  0  0
  7  2  2  0  0  0  0
  7 12  1  0  0  0  0
  7 32  1  0  0  0  0
  8 10  2  0  0  0  0
  9  8  1  0  0  0  0
  9 17  2  0  0  0  0
 10 18  1  0  0  0  0
 13 29  1  0  0  0  0
 14  4  2  0  0  0  0
 15 13  3  0  0  0  0
 15 33  1  0  0  0  0
 16  3  2  0  0  0  0
 17 12  1  0  0  0  0
 17 34  1  0  0  0  0
 18 12  2  0  0  0  0
 18 35  1  0  0  0  0
 19  6  2  0  0  0  0
 20 11  1  0  0  0  0
 20 36  1  0  0  0  0
 21 11  2  0  0  0  0
 21 37  1  0  0  0  0
 22  9  1  0  0  0  0
 23  8  1  0  0  0  0
 24 26  2  0  0  0  0
 25 10  1  0  0  0  0
 26 21  1  0  0  0  0
 26 38  1  0  0  0  0
 27 20  2  0  0  0  0
 27 24  1  0  0  0  0
 27 39  1  0  0  0  0
 28 24  1  0  0  0  0
 29 23  1  0  0  0  0
 29 40  1  0  0  0  0
 29 41  1  0  0  0  0
 30 25  1  0  0  0  0
 30 42  1  0  0  0  0
 30 43  1  0  0  0  0
 30 44  1  0  0  0  0
M  END
>  <Mol Weight>
536.704

>  <Click ID>
CLK023_B05

>  <Plant Activity>
0

>  <Yeast Activity>
1

$$$$

 OpenBabel11211205583D

 35 36  0  0  0  0  0  0  0  0999 V2000
    1.1360   -0.1183   -0.1796 C   0  0  0  0  0  0  0  0  0  0  0  0
    0.4027    1.0275    0.0356 N   0  0  0  0  0  0  0  0  0  0  0  0
   -1.6070   -6.6311    3.0724 C   0  0  0  0  0  0  0  0  0  0  0  0
   -2.3989   -7.3079    3.6752 C   0  0  0  0  0  0  0  0  0  0  0  0
   -0.1009    3.3590   -0.4231 C   0  0  0  0  0  0  0  0  0  0  0  0
    0.4787   -1.3967    0.2105 C   0  0  0  0  0  0  0  0  0  0  0  0
    0.9814    2.3361   -0.1871 C   0  0  0  0  0  0  0  0  0  0  0  0
    2.2751   -0.1201   -0.6306 O   0  0  0  0  0  0  0  0  0  0  0  0
   -0.3166    4.4697    0.4062 C   0  0  0  0  0  0  0  0  0  0  0  0
   -0.9133   -1.5419    0.2223 C   0  0  0  0  0  0  0  0  0  0  0  0
    1.2880   -2.4829    0.5648 C   0  0  0  0  0  0  0  0  0  0  0  0
    0.6448    4.7779    1.8074 Cl  0  0  0  0  0  0  0  0  0  0  0  0
   -0.6757   -3.8110    1.0494 C   0  0  0  0  0  0  0  0  0  0  0  0
    0.7126   -3.6879    0.9823 C   0  0  0  0  0  0  0  0  0  0  0  0
   -1.4827   -2.7477    0.6390 C   0  0  0  0  0  0  0  0  0  0  0  0
   -0.6425   -5.7891    2.3549 C   0  0  0  0  0  0  0  0  0  0  0  0
   -1.3548   -4.9184    1.4750 O   0  0  0  0  0  0  0  0  0  0  0  0
   -0.9384    3.1929   -1.5447 C   0  0  0  0  0  0  0  0  0  0  0  0
   -1.3433    5.3787    0.1230 C   0  0  0  0  0  0  0  0  0  0  0  0
   -1.9630    4.0984   -1.8222 C   0  0  0  0  0  0  0  0  0  0  0  0
   -2.1660    5.1924   -0.9876 C   0  0  0  0  0  0  0  0  0  0  0  0
   -0.4071    0.9830    0.6388 H   0  0  0  0  0  0  0  0  0  0  0  0
   -3.1033   -7.8964    4.2122 H   0  0  0  0  0  0  0  0  0  0  0  0
    1.6508    2.3055   -1.0552 H   0  0  0  0  0  0  0  0  0  0  0  0
    1.6041    2.5574    0.6836 H   0  0  0  0  0  0  0  0  0  0  0  0
   -1.5678   -0.7384   -0.1027 H   0  0  0  0  0  0  0  0  0  0  0  0
    2.3722   -2.3903    0.5249 H   0  0  0  0  0  0  0  0  0  0  0  0
    1.3728   -4.5095    1.2414 H   0  0  0  0  0  0  0  0  0  0  0  0
   -2.5650   -2.8561    0.6556 H   0  0  0  0  0  0  0  0  0  0  0  0
   -0.0648   -5.2168    3.0916 H   0  0  0  0  0  0  0  0  0  0  0  0
    0.0361   -6.4205    1.7704 H   0  0  0  0  0  0  0  0  0  0  0  0
   -0.7889    2.3433   -2.2107 H   0  0  0  0  0  0  0  0  0  0  0  0
   -1.5075    6.2391    0.7676 H   0  0  0  0  0  0  0  0  0  0  0  0
   -2.5991    3.9493   -2.6916 H   0  0  0  0  0  0  0  0  0  0  0  0
   -2.9613    5.9019   -1.2019 H   0  0  0  0  0  0  0  0  0  0  0  0
  1  6  1  0  0  0  0
  2  1  1  0  0  0  0
  2 22  1  0  0  0  0
  3 16  1  0  0  0  0
  4  3  3  0  0  0  0
  4 23  1  0  0  0  0
  7  2  1  0  0  0  0
  7  5  1  0  0  0  0
  7 24  1  0  0  0  0
  7 25  1  0  0  0  0
  8  1  2  0  0  0  0
  9  5  1  0  0  0  0
 10  6  1  0  0  0  0
 10 26  1  0  0  0  0
 11  6  2  0  0  0  0
 11 27  1  0  0  0  0
 12  9  1  0  0  0  0
 13 14  2  0  0  0  0
 13 15  1  0  0  0  0
 14 11  1  0  0  0  0
 14 28  1  0  0  0  0
 15 10  2  0  0  0  0
 15 29  1  0  0  0  0
 16 17  1  0  0  0  0
 16 30  1  0  0  0  0
 16 31  1  0  0  0  0
 17 13  1  0  0  0  0
 18  5  2  0  0  0  0
 18 32  1  0  0  0  0
 19  9  2  0  0  0  0
 19 21  1  0  0  0  0
 19 33  1  0  0  0  0
 20 18  1  0  0  0  0
 20 34  1  0  0  0  0
 21 20  2  0  0  0  0
 21 35  1  0  0  0  0
M  END
>  <Mol Weight>
299.752

>  <Click ID>
CLK022_B05

>  <Plant Activity>
0

>  <Yeast Activity>
1

>  <Bioactivity Commet>
we may have a SAR for a target

$$$$

 OpenBabel11211205583D

 34 35  0  0  0  0  0  0  0  0999 V2000
   -0.6174    0.3459   -5.2079 C   0  0  0  0  0  0  0  0  0  0  0  0
   -1.6207   -4.9338  -10.9889 C   0  0  0  0  0  0  0  0  0  0  0  0
   -1.4351   -5.6206  -11.9549 C   0  0  0  0  0  0  0  0  0  0  0  0
    0.6178    0.6691   -4.6979 N   0  0  0  0  0  0  0  0  0  0  0  0
   -0.6344   -0.6162   -6.3449 C   0  0  0  0  0  0  0  0  0  0  0  0
    2.2161   -0.3258   -2.6543 N   0  0  0  0  0  0  0  0  0  0  0  0
   -1.6718    0.7888   -4.7655 O   0  0  0  0  0  0  0  0  0  0  0  0
    0.4373   -0.7400   -7.2346 C   0  0  0  0  0  0  0  0  0  0  0  0
   -1.7854   -1.3873   -6.5460 C   0  0  0  0  0  0  0  0  0  0  0  0
    0.7592    1.4697   -3.4970 C   0  0  0  0  0  0  0  0  0  0  0  0
    1.3238    0.6580   -2.3501 C   0  0  0  0  0  0  0  0  0  0  0  0
   -0.7892   -2.4206   -8.4969 C   0  0  0  0  0  0  0  0  0  0  0  0
    0.3550   -1.6401   -8.3028 C   0  0  0  0  0  0  0  0  0  0  0  0
   -1.8614   -2.2891   -7.6137 C   0  0  0  0  0  0  0  0  0  0  0  0
   -1.8650   -4.0991   -9.8022 C   0  0  0  0  0  0  0  0  0  0  0  0
   -0.7356   -3.2553   -9.5797 O   0  0  0  0  0  0  0  0  0  0  0  0
    2.7444   -1.0201   -1.6219 C   0  0  0  0  0  0  0  0  0  0  0  0
    0.9789    0.9742   -1.0375 C   0  0  0  0  0  0  0  0  0  0  0  0
    2.4445   -0.7754   -0.2925 C   0  0  0  0  0  0  0  0  0  0  0  0
    1.5466    0.2430    0.0020 C   0  0  0  0  0  0  0  0  0  0  0  0
   -1.2699   -6.2309  -12.8140 H   0  0  0  0  0  0  0  0  0  0  0  0
    1.4050    0.0610   -4.8893 H   0  0  0  0  0  0  0  0  0  0  0  0
    1.3284   -0.1275   -7.1318 H   0  0  0  0  0  0  0  0  0  0  0  0
   -2.6313   -1.2863   -5.8681 H   0  0  0  0  0  0  0  0  0  0  0  0
   -0.2015    1.9153   -3.2196 H   0  0  0  0  0  0  0  0  0  0  0  0
    1.4626    2.2763   -3.7287 H   0  0  0  0  0  0  0  0  0  0  0  0
    1.1879   -1.7276   -8.9973 H   0  0  0  0  0  0  0  0  0  0  0  0
   -2.7757   -2.8627   -7.7237 H   0  0  0  0  0  0  0  0  0  0  0  0
   -2.7605   -3.4904   -9.9742 H   0  0  0  0  0  0  0  0  0  0  0  0
   -2.0222   -4.7513   -8.9349 H   0  0  0  0  0  0  0  0  0  0  0  0
    3.4418   -1.8051   -1.9002 H   0  0  0  0  0  0  0  0  0  0  0  0
    0.2766    1.7737   -0.8226 H   0  0  0  0  0  0  0  0  0  0  0  0
    2.9010   -1.3636    0.4955 H   0  0  0  0  0  0  0  0  0  0  0  0
    1.2892    0.4671    1.0334 H   0  0  0  0  0  0  0  0  0  0  0  0
  1  5  1  0  0  0  0
  2 15  1  0  0  0  0
  3  2  3  0  0  0  0
  3 21  1  0  0  0  0
  4  1  1  0  0  0  0
  4 22  1  0  0  0  0
  6 11  1  0  0  0  0
  7  1  2  0  0  0  0
  8  5  1  0  0  0  0
  8 23  1  0  0  0  0
  9  5  2  0  0  0  0
  9 24  1  0  0  0  0
 10  4  1  0  0  0  0
 10 11  1  0  0  0  0
 10 25  1  0  0  0  0
 10 26  1  0  0  0  0
 12 14  2  0  0  0  0
 13  8  2  0  0  0  0
 13 12  1  0  0  0  0
 13 27  1  0  0  0  0
 14  9  1  0  0  0  0
 14 28  1  0  0  0  0
 15 16  1  0  0  0  0
 15 29  1  0  0  0  0
 15 30  1  0  0  0  0
 16 12  1  0  0  0  0
 17  6  2  0  0  0  0
 17 31  1  0  0  0  0
 18 11  2  0  0  0  0
 18 32  1  0  0  0  0
 19 17  1  0  0  0  0
 19 20  2  0  0  0  0
 19 33  1  0  0  0  0
 20 18  1  0  0  0  0
 20 34  1  0  0  0  0
M  END
>  <Mol Weight>
266.2946

>  <Click ID>
CLK022_B04

>  <Plant Activity>
0

>  <Yeast Activity>
1

>  <Bioactivity Commet>
we may have a SAR for a target

$$$$

 OpenBabel11211205593D

 38 38  0  0  0  0  0  0  0  0999 V2000
    2.3653   -0.1570    0.6627 C   0  0  0  0  0  0  0  0  0  0  0  0
   -0.0297    2.1749    2.2124 C   0  0  0  0  0  0  0  0  0  0  0  0
    1.2727    0.5599    1.0873 N   0  0  0  0  0  0  0  0  0  0  0  0
    1.9820   -1.3910    0.1814 N   0  0  0  0  0  0  0  0  0  0  0  0
   -1.1058    2.3541    2.7166 C   0  0  0  0  0  0  0  0  0  0  0  0
    1.3122    1.9312    1.6116 C   0  0  0  0  0  0  0  0  0  0  0  0
    3.5129    0.2615    0.7192 O   0  0  0  0  0  0  0  0  0  0  0  0
    2.8248   -2.5020   -0.0195 C   0  0  0  0  0  0  0  0  0  0  0  0
    4.0524   -2.6472    0.6341 C   0  0  0  0  0  0  0  0  0  0  0  0
    4.8234   -3.8076    0.4661 C   0  0  0  0  0  0  0  0  0  0  0  0
    3.1504   -4.6682   -1.0587 C   0  0  0  0  0  0  0  0  0  0  0  0
    2.3715   -3.5273   -0.8552 C   0  0  0  0  0  0  0  0  0  0  0  0
    2.3965    2.1487    2.7041 C   0  0  0  0  0  0  0  0  0  0  0  0
    1.5131    2.9044    0.4160 C   0  0  0  0  0  0  0  0  0  0  0  0
    4.3730   -4.8068   -0.4029 C   0  0  0  0  0  0  0  0  0  0  0  0
    6.1365   -3.9548    1.1767 C   0  0  0  0  0  0  0  0  0  0  0  0
    1.5387    4.3897    0.7663 C   0  0  0  0  0  0  0  0  0  0  0  0
    2.3599    1.1546    3.8629 C   0  0  0  0  0  0  0  0  0  0  0  0
    0.4151    0.0453    1.2148 H   0  0  0  0  0  0  0  0  0  0  0  0
    1.0749   -1.4201   -0.2585 H   0  0  0  0  0  0  0  0  0  0  0  0
   -2.0538    2.5136    3.1785 H   0  0  0  0  0  0  0  0  0  0  0  0
    4.4119   -1.8736    1.3084 H   0  0  0  0  0  0  0  0  0  0  0  0
    2.8033   -5.4516   -1.7273 H   0  0  0  0  0  0  0  0  0  0  0  0
    1.4196   -3.4459   -1.3719 H   0  0  0  0  0  0  0  0  0  0  0  0
    2.2971    3.1530    3.1362 H   0  0  0  0  0  0  0  0  0  0  0  0
    3.3958    2.1179    2.2552 H   0  0  0  0  0  0  0  0  0  0  0  0
    0.7124    2.7444   -0.3199 H   0  0  0  0  0  0  0  0  0  0  0  0
    2.4491    2.6638   -0.1040 H   0  0  0  0  0  0  0  0  0  0  0  0
    4.9696   -5.7013   -0.5667 H   0  0  0  0  0  0  0  0  0  0  0  0
    6.1517   -3.3670    2.1008 H   0  0  0  0  0  0  0  0  0  0  0  0
    6.9535   -3.6188    0.5315 H   0  0  0  0  0  0  0  0  0  0  0  0
    6.3091   -4.9994    1.4571 H   0  0  0  0  0  0  0  0  0  0  0  0
    0.6363    4.6980    1.3023 H   0  0  0  0  0  0  0  0  0  0  0  0
    1.5972    4.9852   -0.1509 H   0  0  0  0  0  0  0  0  0  0  0  0
    2.4106    4.6426    1.3762 H   0  0  0  0  0  0  0  0  0  0  0  0
    1.4521    1.2752    4.4614 H   0  0  0  0  0  0  0  0  0  0  0  0
    3.2159    1.3277    4.5239 H   0  0  0  0  0  0  0  0  0  0  0  0
    2.4133    0.1181    3.5193 H   0  0  0  0  0  0  0  0  0  0  0  0
  2  6  1  0  0  0  0
  3  1  1  0  0  0  0
  3 19  1  0  0  0  0
  4  1  1  0  0  0  0
  4  8  1  0  0  0  0
  4 20  1  0  0  0  0
  5  2  3  0  0  0  0
  5 21  1  0  0  0  0
  6  3  1  0  0  0  0
  7  1  2  0  0  0  0
  9  8  2  0  0  0  0
  9 22  1  0  0  0  0
 10  9  1  0  0  0  0
 11 12  2  0  0  0  0
 11 23  1  0  0  0  0
 12  8  1  0  0  0  0
 12 24  1  0  0  0  0
 13  6  1  0  0  0  0
 13 25  1  0  0  0  0
 13 26  1  0  0  0  0
 14  6  1  0  0  0  0
 14 27  1  0  0  0  0
 14 28  1  0  0  0  0
 15 11  1  0  0  0  0
 15 10  2  0  0  0  0
 15 29  1  0  0  0  0
 16 10  1  0  0  0  0
 16 30  1  0  0  0  0
 16 31  1  0  0  0  0
 16 32  1  0  0  0  0
 17 14  1  0  0  0  0
 17 33  1  0  0  0  0
 17 34  1  0  0  0  0
 17 35  1  0  0  0  0
 18 13  1  0  0  0  0
 18 36  1  0  0  0  0
 18 37  1  0  0  0  0
 18 38  1  0  0  0  0
M  END
>  <Mol Weight>
244.3321

>  <Click ID>
CLK022_B03

>  <Plant Activity>
0

>  <Yeast Activity>
1

>  <Bioactivity Commet>
we may have a SAR for a target

$$$$

 OpenBabel11211205593D

 23 23  0  0  0  0  0  0  0  0999 V2000
   -0.5321    0.5045    0.0930 C   0  0  0  0  0  0  0  0  0  0  0  0
   -1.0286   -0.8106    0.0270 C   0  0  0  0  0  0  0  0  0  0  0  0
    0.8607    0.7069    0.1615 C   0  0  0  0  0  0  0  0  0  0  0  0
    2.8460   -3.7168   -0.0252 N   0  0  0  0  0  0  0  0  0  0  0  0
   -2.4641    3.3439   -0.9009 C   0  0  0  0  0  0  0  0  0  0  0  0
    2.1135   -2.8180   -0.0022 C   0  0  0  0  0  0  0  0  0  0  0  0
   -3.5087    3.8553   -1.2011 C   0  0  0  0  0  0  0  0  0  0  0  0
    1.2165   -1.6991    0.0282 C   0  0  0  0  0  0  0  0  0  0  0  0
   -0.1616   -1.9072   -0.0088 C   0  0  0  0  0  0  0  0  0  0  0  0
    1.7245   -0.3969    0.1063 C   0  0  0  0  0  0  0  0  0  0  0  0
   -3.0909   -1.2197   -0.0424 I   0  0  0  0  0  0  0  0  0  0  0  0
   -1.4670    1.5056    0.1791 O   0  0  0  0  0  0  0  0  0  0  0  0
    1.3181    1.9949    0.2617 O   0  0  0  0  0  0  0  0  0  0  0  0
   -1.1872    2.7147   -0.5267 C   0  0  0  0  0  0  0  0  0  0  0  0
    2.5770    2.1854    0.8989 C   0  0  0  0  0  0  0  0  0  0  0  0
   -4.4406    4.3015   -1.4616 H   0  0  0  0  0  0  0  0  0  0  0  0
   -0.5541   -2.9214   -0.0623 H   0  0  0  0  0  0  0  0  0  0  0  0
    2.8032   -0.2627    0.1220 H   0  0  0  0  0  0  0  0  0  0  0  0
   -0.6024    2.5289   -1.4357 H   0  0  0  0  0  0  0  0  0  0  0  0
   -0.6435    3.3982    0.1341 H   0  0  0  0  0  0  0  0  0  0  0  0
    2.6894    3.2558    1.0961 H   0  0  0  0  0  0  0  0  0  0  0  0
    3.3983    1.8825    0.2422 H   0  0  0  0  0  0  0  0  0  0  0  0
    2.6224    1.6602    1.8589 H   0  0  0  0  0  0  0  0  0  0  0  0
  2  1  2  0  0  0  0
  3  1  1  0  0  0  0
  4  6  3  0  0  0  0
  5 14  1  0  0  0  0
  6  8  1  0  0  0  0
  7  5  3  0  0  0  0
  7 16  1  0  0  0  0
  8 10  1  0  0  0  0
  9  2  1  0  0  0  0
  9  8  2  0  0  0  0
  9 17  1  0  0  0  0
 10  3  2  0  0  0  0
 10 18  1  0  0  0  0
 11  2  1  0  0  0  0
 12  1  1  0  0  0  0
 13  3  1  0  0  0  0
 14 12  1  0  0  0  0
 14 19  1  0  0  0  0
 14 20  1  0  0  0  0
 15 13  1  0  0  0  0
 15 21  1  0  0  0  0
 15 22  1  0  0  0  0
 15 23  1  0  0  0  0
M  END
>  <Mol Weight>
313.0912

>  <Click ID>
CLK021_C07

>  <Plant Activity>
0

>  <Yeast Activity>
1

$$$$

 OpenBabel11211205593D

 28 28  0  0  0  0  0  0  0  0999 V2000
    2.8578    3.6676    1.3683 N   0  3  0  0  0  0  0  0  0  0  0  0
    0.1191    0.2074   -3.5431 C   0  0  0  0  0  0  0  0  0  0  0  0
    0.3884    1.5838   -3.5010 C   0  0  0  0  0  0  0  0  0  0  0  0
    0.4158   -0.5695   -2.3993 C   0  0  0  0  0  0  0  0  0  0  0  0
    2.4346    3.1440    0.0905 C   0  0  0  0  0  0  0  0  0  0  0  0
   -0.4182   -1.3759   -6.7484 C   0  0  0  0  0  0  0  0  0  0  0  0
   -0.7203   -2.2668   -7.4961 C   0  0  0  0  0  0  0  0  0  0  0  0
    1.7386    1.9983    0.0360 C   0  0  0  0  0  0  0  0  0  0  0  0
    2.6905    2.9877    2.3852 O   0  5  0  0  0  0  0  0  0  0  0  0
    1.2413    1.3993   -1.2158 C   0  0  0  0  0  0  0  0  0  0  0  0
    3.3762    4.7927    1.3354 O   0  0  0  0  0  0  0  0  0  0  0  0
    0.9530    2.1621   -2.3507 C   0  0  0  0  0  0  0  0  0  0  0  0
    0.9567    0.0299   -1.2497 C   0  0  0  0  0  0  0  0  0  0  0  0
   -0.0548    2.8342   -4.8646 Br  0  0  0  0  0  0  0  0  0  0  0  0
   -0.5229   -0.4669   -4.5555 O   0  0  0  0  0  0  0  0  0  0  0  0
    0.0981   -1.9066   -2.4663 O   0  0  0  0  0  0  0  0  0  0  0  0
   -0.0818   -0.2261   -5.8902 C   0  0  0  0  0  0  0  0  0  0  0  0
    0.8059   -2.7808   -1.5938 C   0  0  0  0  0  0  0  0  0  0  0  0
    2.7412    3.7871   -0.7175 H   0  0  0  0  0  0  0  0  0  0  0  0
   -1.0057   -3.0422   -8.1742 H   0  0  0  0  0  0  0  0  0  0  0  0
    1.4996    1.4475    0.9453 H   0  0  0  0  0  0  0  0  0  0  0  0
    1.1171    3.2376   -2.3384 H   0  0  0  0  0  0  0  0  0  0  0  0
    1.1339   -0.5608   -0.3553 H   0  0  0  0  0  0  0  0  0  0  0  0
    0.9957   -0.0333   -5.9325 H   0  0  0  0  0  0  0  0  0  0  0  0
   -0.6326    0.6225   -6.2992 H   0  0  0  0  0  0  0  0  0  0  0  0
    0.4830   -2.6535   -0.5556 H   0  0  0  0  0  0  0  0  0  0  0  0
    0.5699   -3.8088   -1.8855 H   0  0  0  0  0  0  0  0  0  0  0  0
    1.8889   -2.6456   -1.6890 H   0  0  0  0  0  0  0  0  0  0  0  0
  2  4  1  0  0  0  0
  3  2  2  0  0  0  0
  3 12  1  0  0  0  0
  4 13  2  0  0  0  0
  5  1  1  0  0  0  0
  5 19  1  0  0  0  0
  6 17  1  0  0  0  0
  7  6  3  0  0  0  0
  7 20  1  0  0  0  0
  8  5  2  0  0  0  0
  8 10  1  0  0  0  0
  8 21  1  0  0  0  0
  9  1  1  0  0  0  0
 11  1  2  0  0  0  0
 12 10  2  0  0  0  0
 12 22  1  0  0  0  0
 13 10  1  0  0  0  0
 13 23  1  0  0  0  0
 14  3  1  0  0  0  0
 15  2  1  0  0  0  0
 16  4  1  0  0  0  0
 17 15  1  0  0  0  0
 17 24  1  0  0  0  0
 17 25  1  0  0  0  0
 18 16  1  0  0  0  0
 18 26  1  0  0  0  0
 18 27  1  0  0  0  0
 18 28  1  0  0  0  0
M  CHG  2   1   1   9  -1
M  END
>  <Mol Weight>
312.116

>  <Click ID>
CLK020_H03

>  <Plant Activity>
0

>  <Yeast Activity>
1

$$$$

 OpenBabel11211205593D

 29 30  0  0  0  0  0  0  0  0999 V2000
   -0.1747    1.4511    0.0777 C   0  0  0  0  0  0  0  0  0  0  0  0
   -0.7122    2.0116    1.1683 C   0  0  0  0  0  0  0  0  0  0  0  0
    0.2178    0.5482   -1.9776 N   0  0  0  0  0  0  0  0  0  0  0  0
    1.2435    1.0765    0.0270 C   0  0  0  0  0  0  0  0  0  0  0  0
    1.4440    0.5448   -1.2262 O   0  0  0  0  0  0  0  0  0  0  0  0
   -0.6999    1.0767   -1.2228 C   0  0  0  0  0  0  0  0  0  0  0  0
   -2.1037    2.4486    1.3142 C   0  0  0  0  0  0  0  0  0  0  0  0
   -0.5994    6.6978   -0.0362 C   0  0  0  0  0  0  0  0  0  0  0  0
    0.3948    7.2980   -0.3503 C   0  0  0  0  0  0  0  0  0  0  0  0
    2.0737    1.1935    0.9106 O   0  0  0  0  0  0  0  0  0  0  0  0
   -2.4868    3.7728    1.0199 C   0  0  0  0  0  0  0  0  0  0  0  0
   -1.4867    4.6046    0.5841 O   0  0  0  0  0  0  0  0  0  0  0  0
   -1.8171    5.9704    0.3516 C   0  0  0  0  0  0  0  0  0  0  0  0
   -2.1160    1.2281   -1.6659 C   0  0  0  0  0  0  0  0  0  0  0  0
   -3.0571    1.5254    1.7649 C   0  0  0  0  0  0  0  0  0  0  0  0
   -3.8265    4.1442    1.1722 C   0  0  0  0  0  0  0  0  0  0  0  0
   -4.3886    1.9089    1.9129 C   0  0  0  0  0  0  0  0  0  0  0  0
   -4.7716    3.2144    1.6161 C   0  0  0  0  0  0  0  0  0  0  0  0
   -0.0876    2.2135    2.0378 H   0  0  0  0  0  0  0  0  0  0  0  0
    1.2786    7.8257   -0.6261 H   0  0  0  0  0  0  0  0  0  0  0  0
   -2.2257    6.4236    1.2622 H   0  0  0  0  0  0  0  0  0  0  0  0
   -2.5499    6.0455   -0.4605 H   0  0  0  0  0  0  0  0  0  0  0  0
   -2.4676    2.2473   -1.4977 H   0  0  0  0  0  0  0  0  0  0  0  0
   -2.7473    0.5176   -1.1260 H   0  0  0  0  0  0  0  0  0  0  0  0
   -2.1937    1.0156   -2.7365 H   0  0  0  0  0  0  0  0  0  0  0  0
   -2.7690    0.5042    2.0054 H   0  0  0  0  0  0  0  0  0  0  0  0
   -4.1750    5.1481    0.9534 H   0  0  0  0  0  0  0  0  0  0  0  0
   -5.1267    1.1911    2.2624 H   0  0  0  0  0  0  0  0  0  0  0  0
   -5.8111    3.5131    1.7330 H   0  0  0  0  0  0  0  0  0  0  0  0
  2  1  2  0  0  0  0
  2  7  1  0  0  0  0
  2 19  1  0  0  0  0
  3  6  2  0  0  0  0
  3  5  1  0  0  0  0
  4  1  1  0  0  0  0
  5  4  1  0  0  0  0
  6  1  1  0  0  0  0
  8 13  1  0  0  0  0
  9  8  3  0  0  0  0
  9 20  1  0  0  0  0
 10  4  2  0  0  0  0
 11  7  1  0  0  0  0
 12 11  1  0  0  0  0
 13 12  1  0  0  0  0
 13 21  1  0  0  0  0
 13 22  1  0  0  0  0
 14  6  1  0  0  0  0
 14 23  1  0  0  0  0
 14 24  1  0  0  0  0
 14 25  1  0  0  0  0
 15  7  2  0  0  0  0
 15 26  1  0  0  0  0
 16 11  2  0  0  0  0
 16 18  1  0  0  0  0
 16 27  1  0  0  0  0
 17 15  1  0  0  0  0
 17 28  1  0  0  0  0
 18 17  2  0  0  0  0
 18 29  1  0  0  0  0
M  END
>  <Mol Weight>
241.242

>  <Click ID>
CLK020_G07

>  <Plant Activity>
0

>  <Yeast Activity>
1

$$$$

 OpenBabel11211205593D

 24 24  0  0  0  0  0  0  0  0999 V2000
    4.3958   -1.6836   -1.1494 N   0  3  0  0  0  0  0  0  0  0  0  0
    0.0918    3.2383   -1.2607 C   0  0  0  0  0  0  0  0  0  0  0  0
    1.1573    3.2822   -0.3474 C   0  0  0  0  0  0  0  0  0  0  0  0
   -0.1227    2.0208   -1.9475 C   0  0  0  0  0  0  0  0  0  0  0  0
    3.5408   -0.5607   -1.4524 C   0  0  0  0  0  0  0  0  0  0  0  0
   -1.7590    6.3619   -1.7080 C   0  0  0  0  0  0  0  0  0  0  0  0
   -2.6221    7.0344   -2.1952 C   0  0  0  0  0  0  0  0  0  0  0  0
    2.5960   -0.1968   -0.5771 C   0  0  0  0  0  0  0  0  0  0  0  0
    4.4077   -2.1297    0.0046 O   0  5  0  0  0  0  0  0  0  0  0  0
    1.7365    0.9576   -0.8311 C   0  0  0  0  0  0  0  0  0  0  0  0
    5.0758   -2.1093   -2.0899 O   0  0  0  0  0  0  0  0  0  0  0  0
    1.9647    2.1482   -0.1405 C   0  0  0  0  0  0  0  0  0  0  0  0
    0.6868    0.8966   -1.7410 C   0  0  0  0  0  0  0  0  0  0  0  0
    1.6047    4.6481    0.6149 Cl  0  0  0  0  0  0  0  0  0  0  0  0
   -1.4130    1.8490   -3.0965 Cl  0  0  0  0  0  0  0  0  0  0  0  0
   -0.8081    4.2149   -1.5893 O   0  0  0  0  0  0  0  0  0  0  0  0
   -0.6982    5.5421   -1.0975 C   0  0  0  0  0  0  0  0  0  0  0  0
    3.7808   -0.1197   -2.4070 H   0  0  0  0  0  0  0  0  0  0  0  0
   -3.3942    7.6308   -2.6286 H   0  0  0  0  0  0  0  0  0  0  0  0
    2.4349   -0.7141    0.3666 H   0  0  0  0  0  0  0  0  0  0  0  0
    2.7839    2.1996    0.5771 H   0  0  0  0  0  0  0  0  0  0  0  0
    0.4794   -0.0229   -2.2852 H   0  0  0  0  0  0  0  0  0  0  0  0
    0.2708    5.9704   -1.3734 H   0  0  0  0  0  0  0  0  0  0  0  0
   -0.8449    5.5528   -0.0132 H   0  0  0  0  0  0  0  0  0  0  0  0
  2  4  1  0  0  0  0
  3  2  2  0  0  0  0
  3 12  1  0  0  0  0
  4 13  2  0  0  0  0
  5  1  1  0  0  0  0
  5 18  1  0  0  0  0
  6 17  1  0  0  0  0
  7  6  3  0  0  0  0
  7 19  1  0  0  0  0
  8  5  2  0  0  0  0
  8 10  1  0  0  0  0
  8 20  1  0  0  0  0
  9  1  1  0  0  0  0
 11  1  2  0  0  0  0
 12 10  2  0  0  0  0
 12 21  1  0  0  0  0
 13 10  1  0  0  0  0
 13 22  1  0  0  0  0
 14  3  1  0  0  0  0
 15  4  1  0  0  0  0
 16  2  1  0  0  0  0
 17 16  1  0  0  0  0
 17 23  1  0  0  0  0
 17 24  1  0  0  0  0
M  CHG  2   1   1   9  -1
M  END
>  <Mol Weight>
272.084

>  <Click ID>
CLK020_G03

>  <Plant Activity>
0

>  <Yeast Activity>
1

$$$$

 OpenBabel11211205593D

 40 42  0  0  0  0  0  0  0  0999 V2000
   -0.5827   -1.8444   -1.7453 C   0  0  0  0  0  0  0  0  0  0  0  0
    0.9094   -0.4216   -2.6614 N   0  0  0  0  0  0  0  0  0  0  0  0
    0.8675   -1.5326   -1.8033 C   0  0  0  0  0  0  0  0  0  0  0  0
   -0.3327   -0.0665   -3.1900 N   0  0  0  0  0  0  0  0  0  0  0  0
   -1.2045   -0.8921   -2.6755 C   0  0  0  0  0  0  0  0  0  0  0  0
   -1.0709   -2.7512   -0.8902 C   0  0  0  0  0  0  0  0  0  0  0  0
   -2.4885   -2.9577   -0.5798 C   0  0  0  0  0  0  0  0  0  0  0  0
   -2.7599   -5.8024   -4.3033 C   0  0  0  0  0  0  0  0  0  0  0  0
   -2.1089   -6.3494   -5.1488 C   0  0  0  0  0  0  0  0  0  0  0  0
    2.0254    0.4032   -2.9551 C   0  0  0  0  0  0  0  0  0  0  0  0
    1.7360   -2.1138   -1.1773 O   0  0  0  0  0  0  0  0  0  0  0  0
   -3.3035   -3.8661   -1.2772 C   0  0  0  0  0  0  0  0  0  0  0  0
   -2.6545   -0.8544   -3.0219 C   0  0  0  0  0  0  0  0  0  0  0  0
   -2.7051   -4.5763   -2.2864 O   0  0  0  0  0  0  0  0  0  0  0  0
   -3.5713   -5.1589   -3.2598 C   0  0  0  0  0  0  0  0  0  0  0  0
   -3.0289   -2.1983    0.4706 C   0  0  0  0  0  0  0  0  0  0  0  0
    3.2832    0.1813   -2.3789 C   0  0  0  0  0  0  0  0  0  0  0  0
    1.8830    1.5025   -3.8184 C   0  0  0  0  0  0  0  0  0  0  0  0
   -4.6431   -4.0103   -0.8952 C   0  0  0  0  0  0  0  0  0  0  0  0
   -4.3658   -2.3417    0.8331 C   0  0  0  0  0  0  0  0  0  0  0  0
    4.3583    1.0380   -2.6439 C   0  0  0  0  0  0  0  0  0  0  0  0
    2.9565    2.3577   -4.0866 C   0  0  0  0  0  0  0  0  0  0  0  0
   -5.1702   -3.2498    0.1531 C   0  0  0  0  0  0  0  0  0  0  0  0
    4.1942    2.1269   -3.4950 C   0  0  0  0  0  0  0  0  0  0  0  0
   -0.3881   -3.3385   -0.2777 H   0  0  0  0  0  0  0  0  0  0  0  0
   -1.5264   -6.8444   -5.8937 H   0  0  0  0  0  0  0  0  0  0  0  0
   -2.8289   -0.1129   -3.8073 H   0  0  0  0  0  0  0  0  0  0  0  0
   -3.2439   -0.5749   -2.1463 H   0  0  0  0  0  0  0  0  0  0  0  0
   -2.9747   -1.8289   -3.3975 H   0  0  0  0  0  0  0  0  0  0  0  0
   -4.1985   -4.3815   -3.7126 H   0  0  0  0  0  0  0  0  0  0  0  0
   -4.2059   -5.9236   -2.7995 H   0  0  0  0  0  0  0  0  0  0  0  0
   -2.4061   -1.4922    1.0173 H   0  0  0  0  0  0  0  0  0  0  0  0
    3.4589   -0.6495   -1.7021 H   0  0  0  0  0  0  0  0  0  0  0  0
    0.9255    1.7117   -4.2897 H   0  0  0  0  0  0  0  0  0  0  0  0
   -5.3066   -4.7198   -1.3779 H   0  0  0  0  0  0  0  0  0  0  0  0
   -4.7745   -1.7529    1.6504 H   0  0  0  0  0  0  0  0  0  0  0  0
    5.3223    0.8528   -2.1766 H   0  0  0  0  0  0  0  0  0  0  0  0
    2.8194    3.2052   -4.7528 H   0  0  0  0  0  0  0  0  0  0  0  0
   -6.2103   -3.3754    0.4451 H   0  0  0  0  0  0  0  0  0  0  0  0
    5.0284    2.7940   -3.6950 H   0  0  0  0  0  0  0  0  0  0  0  0
  2  3  1  0  0  0  0
  2 10  1  0  0  0  0
  3  1  1  0  0  0  0
  4  2  1  0  0  0  0
  4  5  2  0  0  0  0
  5  1  1  0  0  0  0
  6  1  2  0  0  0  0
  6  7  1  0  0  0  0
  6 25  1  0  0  0  0
  8 15  1  0  0  0  0
  9  8  3  0  0  0  0
  9 26  1  0  0  0  0
 11  3  2  0  0  0  0
 12  7  1  0  0  0  0
 13  5  1  0  0  0  0
 13 27  1  0  0  0  0
 13 28  1  0  0  0  0
 13 29  1  0  0  0  0
 14 12  1  0  0  0  0
 15 14  1  0  0  0  0
 15 30  1  0  0  0  0
 15 31  1  0  0  0  0
 16  7  2  0  0  0  0
 16 32  1  0  0  0  0
 17 10  2  0  0  0  0
 17 33  1  0  0  0  0
 18 10  1  0  0  0  0
 18 34  1  0  0  0  0
 19 12  2  0  0  0  0
 19 23  1  0  0  0  0
 19 35  1  0  0  0  0
 20 16  1  0  0  0  0
 20 36  1  0  0  0  0
 21 17  1  0  0  0  0
 21 37  1  0  0  0  0
 22 18  2  0  0  0  0
 22 38  1  0  0  0  0
 23 20  2  0  0  0  0
 23 39  1  0  0  0  0
 24 22  1  0  0  0  0
 24 21  2  0  0  0  0
 24 40  1  0  0  0  0
M  END
>  <Mol Weight>
316.3532

>  <Click ID>
CLK020_B08

>  <Plant Activity>
0

>  <Yeast Activity>
1

$$$$

 OpenBabel11211205593D

 29 29  0  0  0  0  0  0  0  0999 V2000
   -0.5831   -0.6179   -0.4667 C   0  0  0  0  0  0  0  0  0  0  0  0
   -1.1629   -1.8960   -0.3549 C   0  0  0  0  0  0  0  0  0  0  0  0
    0.8212   -0.5021   -0.5455 C   0  0  0  0  0  0  0  0  0  0  0  0
   -2.2660    2.3578    0.5609 C   0  0  0  0  0  0  0  0  0  0  0  0
   -3.2344    2.9322    0.9797 C   0  0  0  0  0  0  0  0  0  0  0  0
   -0.3707   -3.0426   -0.2855 C   0  0  0  0  0  0  0  0  0  0  0  0
    1.6093   -1.6586   -0.4738 C   0  0  0  0  0  0  0  0  0  0  0  0
    1.0147   -2.9176   -0.3409 C   0  0  0  0  0  0  0  0  0  0  0  0
    1.4152   -5.3071   -0.1997 N   0  0  0  0  0  0  0  0  0  0  0  0
    1.8882   -4.1047   -0.2843 C   0  0  0  0  0  0  0  0  0  0  0  0
   -3.0499   -2.1300   -0.2787 Br  0  0  0  0  0  0  0  0  0  0  0  0
   -1.4645    0.4336   -0.5488 O   0  0  0  0  0  0  0  0  0  0  0  0
    1.3400    0.7477   -0.7577 O   0  0  0  0  0  0  0  0  0  0  0  0
    2.4845   -6.2103   -0.1699 O   0  0  0  0  0  0  0  0  0  0  0  0
   -1.0685    1.6591    0.0657 C   0  0  0  0  0  0  0  0  0  0  0  0
    2.7328    0.9822   -0.5523 C   0  0  0  0  0  0  0  0  0  0  0  0
    3.4935    0.8509   -1.8598 C   0  0  0  0  0  0  0  0  0  0  0  0
   -4.0942    3.4379    1.3558 H   0  0  0  0  0  0  0  0  0  0  0  0
   -0.8283   -4.0251   -0.1953 H   0  0  0  0  0  0  0  0  0  0  0  0
    2.6901   -1.6081   -0.5495 H   0  0  0  0  0  0  0  0  0  0  0  0
    2.9790   -3.9295   -0.3193 H   0  0  0  0  0  0  0  0  0  0  0  0
    2.0291   -7.0720   -0.1228 H   0  0  0  0  0  0  0  0  0  0  0  0
   -0.5770    2.2891   -0.6833 H   0  0  0  0  0  0  0  0  0  0  0  0
   -0.3947    1.4936    0.9150 H   0  0  0  0  0  0  0  0  0  0  0  0
    3.1536    0.3580    0.2438 H   0  0  0  0  0  0  0  0  0  0  0  0
    2.8241    2.0164   -0.2012 H   0  0  0  0  0  0  0  0  0  0  0  0
    3.3983   -0.1538   -2.2819 H   0  0  0  0  0  0  0  0  0  0  0  0
    4.5550    1.0689   -1.7128 H   0  0  0  0  0  0  0  0  0  0  0  0
    3.0920    1.5446   -2.6059 H   0  0  0  0  0  0  0  0  0  0  0  0
  2  1  2  0  0  0  0
  3  1  1  0  0  0  0
  4 15  1  0  0  0  0
  5  4  3  0  0  0  0
  5 18  1  0  0  0  0
  6  2  1  0  0  0  0
  6  8  2  0  0  0  0
  6 19  1  0  0  0  0
  7  3  2  0  0  0  0
  7 20  1  0  0  0  0
  8  7  1  0  0  0  0
  9 10  2  0  0  0  0
 10  8  1  0  0  0  0
 10 21  1  0  0  0  0
 11  2  1  0  0  0  0
 12  1  1  0  0  0  0
 13  3  1  0  0  0  0
 14  9  1  0  0  0  0
 14 22  1  0  0  0  0
 15 12  1  0  0  0  0
 15 23  1  0  0  0  0
 15 24  1  0  0  0  0
 16 13  1  0  0  0  0
 16 25  1  0  0  0  0
 16 26  1  0  0  0  0
 17 16  1  0  0  0  0
 17 27  1  0  0  0  0
 17 28  1  0  0  0  0
 17 29  1  0  0  0  0
M  END
>  <Mol Weight>
298.133

>  <Click ID>
CLK018_G08

>  <Plant Activity>
0

>  <Yeast Activity>
1

$$$$

 OpenBabel11211205593D

 33 34  0  0  0  0  0  0  0  0999 V2000
   -5.0560   -4.2305    0.9184 C   0  0  0  0  0  0  0  0  0  0  0  0
   -4.4822   -3.0155    0.9994 C   0  0  0  0  0  0  0  0  0  0  0  0
   -4.9902   -6.5099    0.6116 N   0  0  0  0  0  0  0  0  0  0  0  0
   -6.4305   -4.7503    1.0280 C   0  0  0  0  0  0  0  0  0  0  0  0
   -6.3344   -6.1192    0.8952 O   0  0  0  0  0  0  0  0  0  0  0  0
   -4.2686   -5.4318    0.6216 C   0  0  0  0  0  0  0  0  0  0  0  0
   -4.9828   -1.6197    1.1084 C   0  0  0  0  0  0  0  0  0  0  0  0
   -4.0944   -0.5187    0.9492 C   0  0  0  0  0  0  0  0  0  0  0  0
   -1.4673   -0.2408   -1.1643 C   0  0  0  0  0  0  0  0  0  0  0  0
   -0.7511    0.4867   -1.7939 C   0  0  0  0  0  0  0  0  0  0  0  0
   -7.4687   -4.1502    1.2257 O   0  0  0  0  0  0  0  0  0  0  0  0
   -4.5485    0.8158    1.0518 C   0  0  0  0  0  0  0  0  0  0  0  0
   -2.7274   -0.6891    0.8259 O   0  0  0  0  0  0  0  0  0  0  0  0
   -3.6145    1.8088    0.8890 O   0  0  0  0  0  0  0  0  0  0  0  0
   -2.3225   -1.1948   -0.4510 C   0  0  0  0  0  0  0  0  0  0  0  0
   -6.3239   -1.3148    1.3582 C   0  0  0  0  0  0  0  0  0  0  0  0
   -2.8198   -5.4472    0.2431 C   0  0  0  0  0  0  0  0  0  0  0  0
   -6.7835    0.0043    1.4219 C   0  0  0  0  0  0  0  0  0  0  0  0
   -5.9032    1.0666    1.2602 C   0  0  0  0  0  0  0  0  0  0  0  0
   -3.9006    3.0427    1.5399 C   0  0  0  0  0  0  0  0  0  0  0  0
   -3.3985   -3.0237    0.9566 H   0  0  0  0  0  0  0  0  0  0  0  0
   -0.1105    1.1132   -2.3711 H   0  0  0  0  0  0  0  0  0  0  0  0
   -3.1663   -1.4913   -1.0840 H   0  0  0  0  0  0  0  0  0  0  0  0
   -1.7296   -2.0964   -0.2515 H   0  0  0  0  0  0  0  0  0  0  0  0
   -7.0692   -2.0785    1.5235 H   0  0  0  0  0  0  0  0  0  0  0  0
   -2.2178   -4.8856    0.9595 H   0  0  0  0  0  0  0  0  0  0  0  0
   -2.7090   -5.0107   -0.7546 H   0  0  0  0  0  0  0  0  0  0  0  0
   -2.4525   -6.4771    0.2125 H   0  0  0  0  0  0  0  0  0  0  0  0
   -7.8396    0.1952    1.6015 H   0  0  0  0  0  0  0  0  0  0  0  0
   -6.3032    2.0740    1.2992 H   0  0  0  0  0  0  0  0  0  0  0  0
   -3.0072    3.6711    1.4758 H   0  0  0  0  0  0  0  0  0  0  0  0
   -4.1276    2.8891    2.6008 H   0  0  0  0  0  0  0  0  0  0  0  0
   -4.7131    3.5786    1.0387 H   0  0  0  0  0  0  0  0  0  0  0  0
  2  1  2  0  0  0  0
  2  7  1  0  0  0  0
  2 21  1  0  0  0  0
  3  6  2  0  0  0  0
  3  5  1  0  0  0  0
  4  1  1  0  0  0  0
  5  4  1  0  0  0  0
  6  1  1  0  0  0  0
  8  7  2  0  0  0  0
  9 15  1  0  0  0  0
 10  9  3  0  0  0  0
 10 22  1  0  0  0  0
 11  4  2  0  0  0  0
 12  8  1  0  0  0  0
 13  8  1  0  0  0  0
 14 12  1  0  0  0  0
 15 13  1  0  0  0  0
 15 23  1  0  0  0  0
 15 24  1  0  0  0  0
 16  7  1  0  0  0  0
 16 25  1  0  0  0  0
 17  6  1  0  0  0  0
 17 26  1  0  0  0  0
 17 27  1  0  0  0  0
 17 28  1  0  0  0  0
 18 16  2  0  0  0  0
 18 29  1  0  0  0  0
 19 12  2  0  0  0  0
 19 18  1  0  0  0  0
 19 30  1  0  0  0  0
 20 14  1  0  0  0  0
 20 31  1  0  0  0  0
 20 32  1  0  0  0  0
 20 33  1  0  0  0  0
M  END
>  <Mol Weight>
271.268

>  <Click ID>
CLK018_F03

>  <Plant Activity>
0

>  <Yeast Activity>
1

$$$$

 OpenBabel11211205593D

 24 24  0  0  0  0  0  0  0  0999 V2000
    1.7200  -12.0910    2.0639 N   0  3  0  0  0  0  0  0  0  0  0  0
    1.2643  -10.8511    2.6487 C   0  0  0  0  0  0  0  0  0  0  0  0
    0.0057  -10.7499    3.0956 C   0  0  0  0  0  0  0  0  0  0  0  0
   -0.5584   -9.5347    3.7181 C   0  0  0  0  0  0  0  0  0  0  0  0
    2.1087   -6.8528    0.9302 C   0  0  0  0  0  0  0  0  0  0  0  0
    3.0477   -6.9202    0.1856 C   0  0  0  0  0  0  0  0  0  0  0  0
    0.9385  -13.0496    2.0024 O   0  5  0  0  0  0  0  0  0  0  0  0
    2.8919  -12.1016    1.6677 O   0  0  0  0  0  0  0  0  0  0  0  0
   -0.3054   -8.2175    3.2724 C   0  0  0  0  0  0  0  0  0  0  0  0
   -1.4531   -9.7369    4.7840 C   0  0  0  0  0  0  0  0  0  0  0  0
   -0.9547   -7.1419    3.8947 C   0  0  0  0  0  0  0  0  0  0  0  0
   -2.0746   -8.6539    5.4018 C   0  0  0  0  0  0  0  0  0  0  0  0
   -1.8324   -7.3591    4.9599 C   0  0  0  0  0  0  0  0  0  0  0  0
   -3.2621   -8.9467    6.8425 Br  0  0  0  0  0  0  0  0  0  0  0  0
    0.5635   -8.0785    2.2202 O   0  0  0  0  0  0  0  0  0  0  0  0
    0.9735   -6.7595    1.8590 C   0  0  0  0  0  0  0  0  0  0  0  0
    2.0446  -10.1073    2.6564 H   0  0  0  0  0  0  0  0  0  0  0  0
   -0.6793  -11.5945    3.0363 H   0  0  0  0  0  0  0  0  0  0  0  0
    3.8857   -6.9818   -0.4708 H   0  0  0  0  0  0  0  0  0  0  0  0
   -1.6632  -10.7449    5.1375 H   0  0  0  0  0  0  0  0  0  0  0  0
   -0.8121   -6.1161    3.5698 H   0  0  0  0  0  0  0  0  0  0  0  0
   -2.3246   -6.5115    5.4308 H   0  0  0  0  0  0  0  0  0  0  0  0
    1.2979   -6.1978    2.7431 H   0  0  0  0  0  0  0  0  0  0  0  0
    0.1403   -6.2383    1.3741 H   0  0  0  0  0  0  0  0  0  0  0  0
  2  1  1  0  0  0  0
  2 17  1  0  0  0  0
  3  2  2  0  0  0  0
  3  4  1  0  0  0  0
  3 18  1  0  0  0  0
  5 16  1  0  0  0  0
  6  5  3  0  0  0  0
  6 19  1  0  0  0  0
  7  1  1  0  0  0  0
  8  1  2  0  0  0  0
  9  4  2  0  0  0  0
 10  4  1  0  0  0  0
 10 20  1  0  0  0  0
 11  9  1  0  0  0  0
 11 13  2  0  0  0  0
 11 21  1  0  0  0  0
 12 10  2  0  0  0  0
 13 12  1  0  0  0  0
 13 22  1  0  0  0  0
 14 12  1  0  0  0  0
 15  9  1  0  0  0  0
 16 15  1  0  0  0  0
 16 23  1  0  0  0  0
 16 24  1  0  0  0  0
M  CHG  2   1   1   7  -1
M  END
>  <Mol Weight>
282.09

>  <Click ID>
CLK018_E02

>  <Plant Activity>
0

>  <Yeast Activity>
1

$$$$

 OpenBabel11211205593D

 42 43  0  0  0  0  0  0  0  0999 V2000
    0.3421    0.7818   -0.5505 C   0  0  0  0  0  0  0  0  0  0  0  0
    1.0005   -0.2379    0.2730 C   0  0  0  0  0  0  0  0  0  0  0  0
   -1.1093    0.9941   -0.4250 C   0  0  0  0  0  0  0  0  0  0  0  0
    0.2074   -1.2293    0.7161 O   0  0  0  0  0  0  0  0  0  0  0  0
   -1.7252    0.1867    0.4571 O   0  0  0  0  0  0  0  0  0  0  0  0
   -1.2138   -1.1287    0.6484 C   0  0  0  0  0  0  0  0  0  0  0  0
    0.9927    1.6197   -1.3876 C   0  0  0  0  0  0  0  0  0  0  0  0
    5.1492    2.0354   -2.3338 C   0  0  0  0  0  0  0  0  0  0  0  0
    4.5424    0.7760   -2.4180 C   0  0  0  0  0  0  0  0  0  0  0  0
    4.3804    3.1612   -1.9893 C   0  0  0  0  0  0  0  0  0  0  0  0
    2.4305    1.7170   -1.6942 C   0  0  0  0  0  0  0  0  0  0  0  0
    7.9965    1.3416   -1.0543 C   0  0  0  0  0  0  0  0  0  0  0  0
    8.5377    0.3664   -0.6087 C   0  0  0  0  0  0  0  0  0  0  0  0
    3.1894    0.6184   -2.1038 C   0  0  0  0  0  0  0  0  0  0  0  0
    3.0304    2.9872   -1.6593 C   0  0  0  0  0  0  0  0  0  0  0  0
   -1.7159    1.8872   -0.9991 O   0  0  0  0  0  0  0  0  0  0  0  0
    2.1945   -0.2345    0.5389 O   0  0  0  0  0  0  0  0  0  0  0  0
    5.5077   -0.7639   -2.9704 Br  0  0  0  0  0  0  0  0  0  0  0  0
    6.4703    2.1607   -2.6937 O   0  0  0  0  0  0  0  0  0  0  0  0
    5.0231    4.3740   -2.0202 O   0  0  0  0  0  0  0  0  0  0  0  0
   -1.7497   -2.0474   -0.4498 C   0  0  0  0  0  0  0  0  0  0  0  0
   -1.7251   -1.5957    2.0110 C   0  0  0  0  0  0  0  0  0  0  0  0
    7.3132    2.5280   -1.5919 C   0  0  0  0  0  0  0  0  0  0  0  0
    4.2540    5.5403   -1.7308 C   0  0  0  0  0  0  0  0  0  0  0  0
    5.1570    6.7519   -1.8760 C   0  0  0  0  0  0  0  0  0  0  0  0
    0.4156    2.3785   -1.9218 H   0  0  0  0  0  0  0  0  0  0  0  0
    9.0014   -0.5098   -0.2184 H   0  0  0  0  0  0  0  0  0  0  0  0
    2.7381   -0.3680   -2.1719 H   0  0  0  0  0  0  0  0  0  0  0  0
    2.4164    3.8361   -1.3727 H   0  0  0  0  0  0  0  0  0  0  0  0
   -1.3970   -1.7271   -1.4363 H   0  0  0  0  0  0  0  0  0  0  0  0
   -2.8452   -2.0280   -0.4797 H   0  0  0  0  0  0  0  0  0  0  0  0
   -1.4146   -3.0801   -0.3073 H   0  0  0  0  0  0  0  0  0  0  0  0
   -1.3218   -0.9535    2.8036 H   0  0  0  0  0  0  0  0  0  0  0  0
   -1.3997   -2.6181    2.2320 H   0  0  0  0  0  0  0  0  0  0  0  0
   -2.8166   -1.5411    2.0747 H   0  0  0  0  0  0  0  0  0  0  0  0
    6.7797    3.0465   -0.7866 H   0  0  0  0  0  0  0  0  0  0  0  0
    8.0577    3.2300   -1.9837 H   0  0  0  0  0  0  0  0  0  0  0  0
    3.8781    5.4976   -0.7022 H   0  0  0  0  0  0  0  0  0  0  0  0
    3.4193    5.6335   -2.4353 H   0  0  0  0  0  0  0  0  0  0  0  0
    6.0239    6.6704   -1.2122 H   0  0  0  0  0  0  0  0  0  0  0  0
    4.6145    7.6715   -1.6384 H   0  0  0  0  0  0  0  0  0  0  0  0
    5.5426    6.8245   -2.8983 H   0  0  0  0  0  0  0  0  0  0  0  0
  2  1  1  0  0  0  0
  3  1  1  0  0  0  0
  4  2  1  0  0  0  0
  4  6  1  0  0  0  0
  5  3  1  0  0  0  0
  6  5  1  0  0  0  0
  7  1  2  0  0  0  0
  7 11  1  0  0  0  0
  7 26  1  0  0  0  0
  8 10  1  0  0  0  0
  8  9  2  0  0  0  0
  9 14  1  0  0  0  0
 10 15  2  0  0  0  0
 12 23  1  0  0  0  0
 13 12  3  0  0  0  0
 13 27  1  0  0  0  0
 14 11  2  0  0  0  0
 14 28  1  0  0  0  0
 15 11  1  0  0  0  0
 15 29  1  0  0  0  0
 16  3  2  0  0  0  0
 17  2  2  0  0  0  0
 18  9  1  0  0  0  0
 19  8  1  0  0  0  0
 20 10  1  0  0  0  0
 21  6  1  0  0  0  0
 21 30  1  0  0  0  0
 21 31  1  0  0  0  0
 21 32  1  0  0  0  0
 22  6  1  0  0  0  0
 22 33  1  0  0  0  0
 22 34  1  0  0  0  0
 22 35  1  0  0  0  0
 23 19  1  0  0  0  0
 23 36  1  0  0  0  0
 23 37  1  0  0  0  0
 24 20  1  0  0  0  0
 24 38  1  0  0  0  0
 24 39  1  0  0  0  0
 25 24  1  0  0  0  0
 25 40  1  0  0  0  0
 25 41  1  0  0  0  0
 25 42  1  0  0  0  0
M  END
>  <Mol Weight>
409.228

>  <Click ID>
CLK018_D06

>  <Plant Activity>
0

>  <Yeast Activity>
1

$$$$

 OpenBabel11211205593D

 43 45  0  0  0  0  0  0  0  0999 V2000
   -0.2077    0.8211    0.0237 C   0  0  0  0  0  0  0  0  0  0  0  0
    1.3394   -0.7551   -0.5774 N   0  0  0  0  0  0  0  0  0  0  0  0
    1.2039    0.4402   -0.0807 C   0  0  0  0  0  0  0  0  0  0  0  0
   -0.9362   -0.3631   -0.4646 C   0  0  0  0  0  0  0  0  0  0  0  0
    0.0290   -1.2793   -0.8154 O   0  0  0  0  0  0  0  0  0  0  0  0
   -0.6902    2.0132    0.4081 C   0  0  0  0  0  0  0  0  0  0  0  0
   -7.4944    4.4985    3.2409 C   0  0  0  0  0  0  0  0  0  0  0  0
   -8.2046    5.3075    3.7734 C   0  0  0  0  0  0  0  0  0  0  0  0
   -3.5882    4.3640    0.7889 C   0  0  0  0  0  0  0  0  0  0  0  0
   -2.0747    2.4693    0.6233 C   0  0  0  0  0  0  0  0  0  0  0  0
    2.3630    1.2638    0.3073 C   0  0  0  0  0  0  0  0  0  0  0  0
   -2.3567    3.8235    0.4091 C   0  0  0  0  0  0  0  0  0  0  0  0
   -4.5935    3.5586    1.3372 C   0  0  0  0  0  0  0  0  0  0  0  0
   -2.1360   -0.5265   -0.5796 O   0  0  0  0  0  0  0  0  0  0  0  0
   -4.3333    2.1993    1.5096 C   0  0  0  0  0  0  0  0  0  0  0  0
   -3.0735    1.6704    1.1897 C   0  0  0  0  0  0  0  0  0  0  0  0
   -3.7601    5.7101    0.5842 O   0  0  0  0  0  0  0  0  0  0  0  0
   -5.7674    4.1790    1.6694 O   0  0  0  0  0  0  0  0  0  0  0  0
   -6.6044    3.5115    2.6119 C   0  0  0  0  0  0  0  0  0  0  0  0
    3.5130    1.1925   -0.4896 C   0  0  0  0  0  0  0  0  0  0  0  0
    2.3749    2.0541    1.4623 C   0  0  0  0  0  0  0  0  0  0  0  0
   -3.7096    6.4421    1.8164 C   0  0  0  0  0  0  0  0  0  0  0  0
   -2.3519    7.1122    1.9471 C   0  0  0  0  0  0  0  0  0  0  0  0
    3.5026    2.8175    1.7768 C   0  0  0  0  0  0  0  0  0  0  0  0
    4.6433    1.9445   -0.1639 C   0  0  0  0  0  0  0  0  0  0  0  0
    4.6327    2.7660    0.9617 C   0  0  0  0  0  0  0  0  0  0  0  0
    0.0185    2.8115    0.6160 H   0  0  0  0  0  0  0  0  0  0  0  0
   -8.8265    6.0311    4.2483 H   0  0  0  0  0  0  0  0  0  0  0  0
   -1.6104    4.4885   -0.0194 H   0  0  0  0  0  0  0  0  0  0  0  0
   -5.0822    1.5183    1.9017 H   0  0  0  0  0  0  0  0  0  0  0  0
   -2.8974    0.6197    1.4069 H   0  0  0  0  0  0  0  0  0  0  0  0
   -6.0123    3.0366    3.4040 H   0  0  0  0  0  0  0  0  0  0  0  0
   -7.1961    2.7493    2.0928 H   0  0  0  0  0  0  0  0  0  0  0  0
    3.5369    0.5487   -1.3670 H   0  0  0  0  0  0  0  0  0  0  0  0
    1.5299    2.0753    2.1446 H   0  0  0  0  0  0  0  0  0  0  0  0
   -3.9079    5.8233    2.7007 H   0  0  0  0  0  0  0  0  0  0  0  0
   -4.4916    7.2074    1.7715 H   0  0  0  0  0  0  0  0  0  0  0  0
   -1.5530    6.3655    2.0020 H   0  0  0  0  0  0  0  0  0  0  0  0
   -2.3091    7.7323    2.8468 H   0  0  0  0  0  0  0  0  0  0  0  0
   -2.1440    7.7384    1.0735 H   0  0  0  0  0  0  0  0  0  0  0  0
    3.5063    3.4437    2.6662 H   0  0  0  0  0  0  0  0  0  0  0  0
    5.5328    1.8843   -0.7864 H   0  0  0  0  0  0  0  0  0  0  0  0
    5.5126    3.3539    1.2128 H   0  0  0  0  0  0  0  0  0  0  0  0
  2  3  2  0  0  0  0
  3  1  1  0  0  0  0
  3 11  1  0  0  0  0
  4  1  1  0  0  0  0
  5  4  1  0  0  0  0
  5  2  1  0  0  0  0
  6  1  2  0  0  0  0
  6 10  1  0  0  0  0
  6 27  1  0  0  0  0
  7 19  1  0  0  0  0
  8  7  3  0  0  0  0
  8 28  1  0  0  0  0
  9 12  1  0  0  0  0
  9 13  2  0  0  0  0
 12 10  2  0  0  0  0
 12 29  1  0  0  0  0
 13 15  1  0  0  0  0
 14  4  2  0  0  0  0
 15 16  2  0  0  0  0
 15 30  1  0  0  0  0
 16 10  1  0  0  0  0
 16 31  1  0  0  0  0
 17  9  1  0  0  0  0
 18 13  1  0  0  0  0
 19 18  1  0  0  0  0
 19 32  1  0  0  0  0
 19 33  1  0  0  0  0
 20 11  2  0  0  0  0
 20 34  1  0  0  0  0
 21 11  1  0  0  0  0
 21 35  1  0  0  0  0
 22 17  1  0  0  0  0
 22 36  1  0  0  0  0
 22 37  1  0  0  0  0
 23 22  1  0  0  0  0
 23 38  1  0  0  0  0
 23 39  1  0  0  0  0
 23 40  1  0  0  0  0
 24 21  2  0  0  0  0
 24 41  1  0  0  0  0
 25 20  1  0  0  0  0
 25 42  1  0  0  0  0
 26 24  1  0  0  0  0
 26 25  2  0  0  0  0
 26 43  1  0  0  0  0
M  END
>  <Mol Weight>
347.364

>  <Click ID>
CLK018_D02

>  <Plant Activity>
0

>  <Yeast Activity>
1

$$$$

 OpenBabel11211205593D

 36 37  0  0  0  0  0  0  0  0999 V2000
   -0.0244    0.4883    0.0448 C   0  0  0  0  0  0  0  0  0  0  0  0
   -2.2564   -0.1067   -0.6595 N   0  0  0  0  0  0  0  0  0  0  0  0
   -0.6814   -1.8047   -0.2033 N   0  0  0  0  0  0  0  0  0  0  0  0
   -1.9295   -1.4559   -0.6927 C   0  0  0  0  0  0  0  0  0  0  0  0
    0.1660   -0.9247    0.4388 C   0  0  0  0  0  0  0  0  0  0  0  0
   -1.3499    0.9185   -0.4512 C   0  0  0  0  0  0  0  0  0  0  0  0
    0.9669    1.4030    0.0668 C   0  0  0  0  0  0  0  0  0  0  0  0
    7.7051   -1.3220    2.7187 C   0  0  0  0  0  0  0  0  0  0  0  0
   -2.7146   -2.3037   -1.1227 O   0  0  0  0  0  0  0  0  0  0  0  0
    8.6472   -2.0659    2.7418 C   0  0  0  0  0  0  0  0  0  0  0  0
   -1.5979    2.1003   -0.6828 O   0  0  0  0  0  0  0  0  0  0  0  0
    0.9848   -1.2742    1.2835 O   0  0  0  0  0  0  0  0  0  0  0  0
   -0.3823   -3.2206   -0.0853 C   0  0  0  0  0  0  0  0  0  0  0  0
   -3.5835    0.2638   -1.1194 C   0  0  0  0  0  0  0  0  0  0  0  0
    2.3613    1.1211    0.4135 C   0  0  0  0  0  0  0  0  0  0  0  0
    4.9716    0.3807    1.1168 C   0  0  0  0  0  0  0  0  0  0  0  0
    2.8142    1.2980    1.7235 C   0  0  0  0  0  0  0  0  0  0  0  0
    3.2348    0.6208   -0.5567 C   0  0  0  0  0  0  0  0  0  0  0  0
    4.5363    0.2585   -0.2041 C   0  0  0  0  0  0  0  0  0  0  0  0
    4.1181    0.9324    2.0737 C   0  0  0  0  0  0  0  0  0  0  0  0
    6.5324   -0.4350    2.7016 C   0  0  0  0  0  0  0  0  0  0  0  0
    6.2429   -0.0672    1.3522 O   0  0  0  0  0  0  0  0  0  0  0  0
    0.7850    2.4326   -0.2379 H   0  0  0  0  0  0  0  0  0  0  0  0
    9.4785   -2.7333    2.7576 H   0  0  0  0  0  0  0  0  0  0  0  0
    0.6904   -3.3861    0.0571 H   0  0  0  0  0  0  0  0  0  0  0  0
   -0.7020   -3.7510   -0.9875 H   0  0  0  0  0  0  0  0  0  0  0  0
   -0.9255   -3.6231    0.7756 H   0  0  0  0  0  0  0  0  0  0  0  0
   -4.3202   -0.4925   -0.8313 H   0  0  0  0  0  0  0  0  0  0  0  0
   -3.5623    0.3417   -2.2111 H   0  0  0  0  0  0  0  0  0  0  0  0
   -3.8891    1.2264   -0.6988 H   0  0  0  0  0  0  0  0  0  0  0  0
    2.1472    1.6874    2.4889 H   0  0  0  0  0  0  0  0  0  0  0  0
    2.9080    0.4860   -1.5845 H   0  0  0  0  0  0  0  0  0  0  0  0
    5.2055   -0.1518   -0.9560 H   0  0  0  0  0  0  0  0  0  0  0  0
    4.4302    1.0769    3.1026 H   0  0  0  0  0  0  0  0  0  0  0  0
    5.6891   -0.9711    3.1557 H   0  0  0  0  0  0  0  0  0  0  0  0
    6.7446    0.4694    3.2831 H   0  0  0  0  0  0  0  0  0  0  0  0
  2  6  1  0  0  0  0
  3  5  1  0  0  0  0
  4  3  1  0  0  0  0
  4  2  1  0  0  0  0
  5  1  1  0  0  0  0
  6  1  1  0  0  0  0
  7  1  2  0  0  0  0
  7 15  1  0  0  0  0
  7 23  1  0  0  0  0
  8 21  1  0  0  0  0
  9  4  2  0  0  0  0
 10  8  3  0  0  0  0
 10 24  1  0  0  0  0
 11  6  2  0  0  0  0
 12  5  2  0  0  0  0
 13  3  1  0  0  0  0
 13 25  1  0  0  0  0
 13 26  1  0  0  0  0
 13 27  1  0  0  0  0
 14  2  1  0  0  0  0
 14 28  1  0  0  0  0
 14 29  1  0  0  0  0
 14 30  1  0  0  0  0
 16 19  2  0  0  0  0
 16 20  1  0  0  0  0
 17 15  1  0  0  0  0
 17 31  1  0  0  0  0
 18 15  2  0  0  0  0
 18 32  1  0  0  0  0
 19 18  1  0  0  0  0
 19 33  1  0  0  0  0
 20 17  2  0  0  0  0
 20 34  1  0  0  0  0
 21 22  1  0  0  0  0
 21 35  1  0  0  0  0
 21 36  1  0  0  0  0
 22 16  1  0  0  0  0
M  END
>  <Mol Weight>
298.2934

>  <Click ID>
CLK018_C09

>  <Plant Activity>
0

>  <Yeast Activity>
1

$$$$

 OpenBabel11211205593D

 33 34  0  0  0  0  0  0  0  0999 V2000
   -0.2704    0.0444   -0.0930 C   0  0  0  0  0  0  0  0  0  0  0  0
    0.8012   -1.5278    1.1599 N   0  0  0  0  0  0  0  0  0  0  0  0
    0.7690   -0.5603   -0.9383 C   0  0  0  0  0  0  0  0  0  0  0  0
    1.3863   -1.5051   -0.1534 O   0  0  0  0  0  0  0  0  0  0  0  0
   -1.0785    0.9944   -0.5785 C   0  0  0  0  0  0  0  0  0  0  0  0
   -0.1421   -0.6329    1.1828 C   0  0  0  0  0  0  0  0  0  0  0  0
   -7.3240    4.0939    2.9279 C   0  0  0  0  0  0  0  0  0  0  0  0
   -7.9106    4.8273    3.6800 C   0  0  0  0  0  0  0  0  0  0  0  0
   -3.0610    3.6526    1.2254 C   0  0  0  0  0  0  0  0  0  0  0  0
   -2.1846    1.6754    0.0912 C   0  0  0  0  0  0  0  0  0  0  0  0
   -1.9826    2.9068    0.7185 C   0  0  0  0  0  0  0  0  0  0  0  0
   -4.3645    3.1361    1.1271 C   0  0  0  0  0  0  0  0  0  0  0  0
    1.0251   -0.2933   -2.0986 O   0  0  0  0  0  0  0  0  0  0  0  0
   -4.5607    1.8952    0.5028 C   0  0  0  0  0  0  0  0  0  0  0  0
   -3.4794    1.1682   -0.0070 C   0  0  0  0  0  0  0  0  0  0  0  0
   -2.6553    4.8421    1.7743 O   0  0  0  0  0  0  0  0  0  0  0  0
   -5.4055    3.8899    1.5925 O   0  0  0  0  0  0  0  0  0  0  0  0
   -6.5807    3.2065    2.0230 C   0  0  0  0  0  0  0  0  0  0  0  0
   -0.9679   -0.3605    2.3926 C   0  0  0  0  0  0  0  0  0  0  0  0
   -3.6373    5.8032    2.1367 C   0  0  0  0  0  0  0  0  0  0  0  0
   -0.9396    1.3250   -1.6093 H   0  0  0  0  0  0  0  0  0  0  0  0
   -8.4157    5.4820    4.3507 H   0  0  0  0  0  0  0  0  0  0  0  0
   -0.9811    3.3287    0.7859 H   0  0  0  0  0  0  0  0  0  0  0  0
   -5.5563    1.4852    0.3604 H   0  0  0  0  0  0  0  0  0  0  0  0
   -3.6681    0.2261   -0.5179 H   0  0  0  0  0  0  0  0  0  0  0  0
   -6.3265    2.2843    2.5591 H   0  0  0  0  0  0  0  0  0  0  0  0
   -7.2005    2.9653    1.1521 H   0  0  0  0  0  0  0  0  0  0  0  0
   -0.8711    0.6877    2.6839 H   0  0  0  0  0  0  0  0  0  0  0  0
   -0.6209   -0.9833    3.2236 H   0  0  0  0  0  0  0  0  0  0  0  0
   -2.0144   -0.6008    2.1927 H   0  0  0  0  0  0  0  0  0  0  0  0
   -4.2146    5.4683    3.0038 H   0  0  0  0  0  0  0  0  0  0  0  0
   -4.2788    6.0649    1.2888 H   0  0  0  0  0  0  0  0  0  0  0  0
   -3.1118    6.7159    2.4353 H   0  0  0  0  0  0  0  0  0  0  0  0
  2  6  2  0  0  0  0
  2  4  1  0  0  0  0
  3  1  1  0  0  0  0
  4  3  1  0  0  0  0
  5  1  2  0  0  0  0
  5 10  1  0  0  0  0
  5 21  1  0  0  0  0
  6  1  1  0  0  0  0
  7 18  1  0  0  0  0
  8  7  3  0  0  0  0
  8 22  1  0  0  0  0
  9 11  2  0  0  0  0
 11 10  1  0  0  0  0
 11 23  1  0  0  0  0
 12  9  1  0  0  0  0
 12 14  2  0  0  0  0
 13  3  2  0  0  0  0
 14 15  1  0  0  0  0
 14 24  1  0  0  0  0
 15 10  2  0  0  0  0
 15 25  1  0  0  0  0
 16  9  1  0  0  0  0
 17 12  1  0  0  0  0
 18 17  1  0  0  0  0
 18 26  1  0  0  0  0
 18 27  1  0  0  0  0
 19  6  1  0  0  0  0
 19 28  1  0  0  0  0
 19 29  1  0  0  0  0
 19 30  1  0  0  0  0
 20 16  1  0  0  0  0
 20 31  1  0  0  0  0
 20 32  1  0  0  0  0
 20 33  1  0  0  0  0
M  END
>  <Mol Weight>
271.268

>  <Click ID>
CLK018_C07

>  <Plant Activity>
0

>  <Yeast Activity>
1

$$$$

 OpenBabel11211206003D

 27 28  0  0  0  0  0  0  0  0999 V2000
    0.9085   -0.0381    1.5309 N   0  0  0  0  0  0  0  0  0  0  0  0
   -0.4337   -0.2775    1.4561 C   0  0  0  0  0  0  0  0  0  0  0  0
    1.4416    0.8824    0.6598 C   0  0  0  0  0  0  0  0  0  0  0  0
    0.3643    1.4417   -0.2095 C   0  0  0  0  0  0  0  0  0  0  0  0
   -1.1505    0.7225    0.2069 S   0  0  0  0  0  0  0  0  0  0  0  0
    0.4837    2.3571   -1.1812 C   0  0  0  0  0  0  0  0  0  0  0  0
    1.7982    0.0484    3.7560 C   0  0  0  0  0  0  0  0  0  0  0  0
    1.8543    0.6741    4.7791 C   0  0  0  0  0  0  0  0  0  0  0  0
    3.3228    4.8180   -1.3485 C   0  0  0  0  0  0  0  0  0  0  0  0
   -1.0857   -1.0674    2.1195 O   0  0  0  0  0  0  0  0  0  0  0  0
    2.6218    1.1914    0.5927 O   0  0  0  0  0  0  0  0  0  0  0  0
    1.7325    3.0066   -1.5809 C   0  0  0  0  0  0  0  0  0  0  0  0
    1.7330   -0.7183    2.5020 C   0  0  0  0  0  0  0  0  0  0  0  0
    4.1163    4.2427   -2.3434 C   0  0  0  0  0  0  0  0  0  0  0  0
    2.1285    4.2013   -0.9666 C   0  0  0  0  0  0  0  0  0  0  0  0
    3.7256    3.0569   -2.9576 C   0  0  0  0  0  0  0  0  0  0  0  0
    3.8801    6.5969   -0.4102 I   0  0  0  0  0  0  0  0  0  0  0  0
    2.5337    2.4373   -2.5773 C   0  0  0  0  0  0  0  0  0  0  0  0
    5.2939    4.7946   -2.7639 O   0  0  0  0  0  0  0  0  0  0  0  0
   -0.3879    2.6801   -1.7470 H   0  0  0  0  0  0  0  0  0  0  0  0
    1.9071    1.2292    5.6880 H   0  0  0  0  0  0  0  0  0  0  0  0
    2.7412   -0.8510    2.0943 H   0  0  0  0  0  0  0  0  0  0  0  0
    1.3193   -1.7140    2.6971 H   0  0  0  0  0  0  0  0  0  0  0  0
    1.5071    4.6404   -0.1900 H   0  0  0  0  0  0  0  0  0  0  0  0
    4.3515    2.6125   -3.7266 H   0  0  0  0  0  0  0  0  0  0  0  0
    2.2435    1.5069   -3.0594 H   0  0  0  0  0  0  0  0  0  0  0  0
    5.4491    5.5909   -2.2252 H   0  0  0  0  0  0  0  0  0  0  0  0
  2  1  1  0  0  0  0
  3  1  1  0  0  0  0
  4  5  1  0  0  0  0
  4  3  1  0  0  0  0
  5  2  1  0  0  0  0
  6  4  2  0  0  0  0
  6 12  1  0  0  0  0
  6 20  1  0  0  0  0
  7 13  1  0  0  0  0
  8  7  3  0  0  0  0
  8 21  1  0  0  0  0
  9 15  2  0  0  0  0
  9 14  1  0  0  0  0
 10  2  2  0  0  0  0
 11  3  2  0  0  0  0
 13  1  1  0  0  0  0
 13 22  1  0  0  0  0
 13 23  1  0  0  0  0
 14 16  2  0  0  0  0
 15 12  1  0  0  0  0
 15 24  1  0  0  0  0
 16 18  1  0  0  0  0
 16 25  1  0  0  0  0
 17  9  1  0  0  0  0
 18 12  2  0  0  0  0
 18 26  1  0  0  0  0
 19 14  1  0  0  0  0
 19 27  1  0  0  0  0
M  END
>  <Mol Weight>
385.177

>  <Click ID>
CLK016_D04

>  <Plant Activity>
0

>  <Yeast Activity>
1

$$$$

 OpenBabel11211206003D

 37 38  0  0  0  0  0  0  0  0999 V2000
   -2.2506    2.5587   -4.1208 N   0  0  0  0  0  0  0  0  0  0  0  0
   -3.0383    1.6826   -3.4312 C   0  0  0  0  0  0  0  0  0  0  0  0
   -1.0152    2.8570   -3.5945 C   0  0  0  0  0  0  0  0  0  0  0  0
   -0.8429    2.1631   -2.2857 C   0  0  0  0  0  0  0  0  0  0  0  0
   -2.2074    1.1455   -1.9845 S   0  0  0  0  0  0  0  0  0  0  0  0
    0.1671    2.2826   -1.4133 C   0  0  0  0  0  0  0  0  0  0  0  0
   -3.3331    4.4774   -5.0512 C   0  0  0  0  0  0  0  0  0  0  0  0
   -3.8264    5.5430   -4.8015 C   0  0  0  0  0  0  0  0  0  0  0  0
   -4.1529    1.2881   -3.7336 O   0  0  0  0  0  0  0  0  0  0  0  0
    3.6542    3.5276   -2.1189 C   0  0  0  0  0  0  0  0  0  0  0  0
   -0.1727    3.5678   -4.1215 O   0  0  0  0  0  0  0  0  0  0  0  0
    1.3222    3.1718   -1.5465 C   0  0  0  0  0  0  0  0  0  0  0  0
   -2.7139    3.1740   -5.3417 C   0  0  0  0  0  0  0  0  0  0  0  0
    2.5323    2.6904   -2.0555 C   0  0  0  0  0  0  0  0  0  0  0  0
    3.5738    4.8523   -1.6475 C   0  0  0  0  0  0  0  0  0  0  0  0
    2.3553    5.3308   -1.1571 C   0  0  0  0  0  0  0  0  0  0  0  0
    1.2353    4.4955   -1.1088 C   0  0  0  0  0  0  0  0  0  0  0  0
    4.8834    3.1059   -2.5669 O   0  0  0  0  0  0  0  0  0  0  0  0
    4.7298    5.5893   -1.7149 O   0  0  0  0  0  0  0  0  0  0  0  0
    4.6927    6.9285   -1.2302 C   0  0  0  0  0  0  0  0  0  0  0  0
    4.8635    2.1114   -3.5829 C   0  0  0  0  0  0  0  0  0  0  0  0
    6.0825    7.5213   -1.3800 C   0  0  0  0  0  0  0  0  0  0  0  0
    0.1602    1.7124   -0.4860 H   0  0  0  0  0  0  0  0  0  0  0  0
   -4.2578    6.4919   -4.5765 H   0  0  0  0  0  0  0  0  0  0  0  0
   -3.4414    2.5182   -5.8331 H   0  0  0  0  0  0  0  0  0  0  0  0
   -1.8680    3.3066   -6.0252 H   0  0  0  0  0  0  0  0  0  0  0  0
    2.5946    1.6552   -2.3732 H   0  0  0  0  0  0  0  0  0  0  0  0
    2.2432    6.3478   -0.7975 H   0  0  0  0  0  0  0  0  0  0  0  0
    0.3014    4.8869   -0.7119 H   0  0  0  0  0  0  0  0  0  0  0  0
    4.4117    6.9448   -0.1708 H   0  0  0  0  0  0  0  0  0  0  0  0
    3.9852    7.5245   -1.8178 H   0  0  0  0  0  0  0  0  0  0  0  0
    4.1702    2.3725   -4.3899 H   0  0  0  0  0  0  0  0  0  0  0  0
    4.6268    1.1288   -3.1632 H   0  0  0  0  0  0  0  0  0  0  0  0
    5.8688    2.0527   -4.0114 H   0  0  0  0  0  0  0  0  0  0  0  0
    6.8113    6.9459   -0.7994 H   0  0  0  0  0  0  0  0  0  0  0  0
    6.1018    8.5603   -1.0388 H   0  0  0  0  0  0  0  0  0  0  0  0
    6.4074    7.4855   -2.4251 H   0  0  0  0  0  0  0  0  0  0  0  0
  2  1  1  0  0  0  0
  3  1  1  0  0  0  0
  4  3  1  0  0  0  0
  5  2  1  0  0  0  0
  5  4  1  0  0  0  0
  6  4  2  0  0  0  0
  6 12  1  0  0  0  0
  6 23  1  0  0  0  0
  7 13  1  0  0  0  0
  8  7  3  0  0  0  0
  8 24  1  0  0  0  0
  9  2  2  0  0  0  0
 10 14  1  0  0  0  0
 11  3  2  0  0  0  0
 13  1  1  0  0  0  0
 13 25  1  0  0  0  0
 13 26  1  0  0  0  0
 14 12  2  0  0  0  0
 14 27  1  0  0  0  0
 15 10  2  0  0  0  0
 15 16  1  0  0  0  0
 16 17  2  0  0  0  0
 16 28  1  0  0  0  0
 17 12  1  0  0  0  0
 17 29  1  0  0  0  0
 18 10  1  0  0  0  0
 19 15  1  0  0  0  0
 20 19  1  0  0  0  0
 20 30  1  0  0  0  0
 20 31  1  0  0  0  0
 21 18  1  0  0  0  0
 21 32  1  0  0  0  0
 21 33  1  0  0  0  0
 21 34  1  0  0  0  0
 22 20  1  0  0  0  0
 22 35  1  0  0  0  0
 22 36  1  0  0  0  0
 22 37  1  0  0  0  0
M  END
>  <Mol Weight>
317.36

>  <Click ID>
CLK016_A10

>  <Plant Activity>
0

>  <Yeast Activity>
1

$$$$

 OpenBabel11211206003D

 26 27  0  0  0  0  0  0  0  0999 V2000
    0.8003   -0.1258    1.4611 N   0  0  0  0  0  0  0  0  0  0  0  0
   -0.5287   -0.3994    1.3073 C   0  0  0  0  0  0  0  0  0  0  0  0
    1.3441    0.8594    0.6713 C   0  0  0  0  0  0  0  0  0  0  0  0
    0.2971    1.4201   -0.2335 C   0  0  0  0  0  0  0  0  0  0  0  0
   -1.2085    0.6237    0.0561 S   0  0  0  0  0  0  0  0  0  0  0  0
    0.4338    2.3917   -1.1467 C   0  0  0  0  0  0  0  0  0  0  0  0
    2.1736   -2.0625    1.7856 C   0  0  0  0  0  0  0  0  0  0  0  0
    2.6366   -3.0466    1.2745 C   0  0  0  0  0  0  0  0  0  0  0  0
   -1.1971   -1.2082    1.9302 O   0  0  0  0  0  0  0  0  0  0  0  0
    2.5062    1.2347    0.7100 O   0  0  0  0  0  0  0  0  0  0  0  0
    1.6056   -0.8579    2.4102 C   0  0  0  0  0  0  0  0  0  0  0  0
    1.6767    3.1064   -1.4374 C   0  0  0  0  0  0  0  0  0  0  0  0
    1.9852    4.2853   -0.7534 C   0  0  0  0  0  0  0  0  0  0  0  0
    3.1743    4.9495   -1.0354 C   0  0  0  0  0  0  0  0  0  0  0  0
    3.4682    6.0794   -0.3783 F   0  0  0  0  0  0  0  0  0  0  0  0
    3.7569    3.2893   -2.6753 C   0  0  0  0  0  0  0  0  0  0  0  0
    2.5658    2.6116   -2.4006 C   0  0  0  0  0  0  0  0  0  0  0  0
    4.0618    4.4634   -1.9890 C   0  0  0  0  0  0  0  0  0  0  0  0
   -0.4165    2.7128   -1.7449 H   0  0  0  0  0  0  0  0  0  0  0  0
    3.0479   -3.9196    0.8222 H   0  0  0  0  0  0  0  0  0  0  0  0
    0.9871   -1.1417    3.2689 H   0  0  0  0  0  0  0  0  0  0  0  0
    2.4121   -0.2146    2.7789 H   0  0  0  0  0  0  0  0  0  0  0  0
    1.3206    4.6933    0.0013 H   0  0  0  0  0  0  0  0  0  0  0  0
    4.4474    2.8972   -3.4175 H   0  0  0  0  0  0  0  0  0  0  0  0
    2.3435    1.6917   -2.9369 H   0  0  0  0  0  0  0  0  0  0  0  0
    4.9848    4.9989   -2.1865 H   0  0  0  0  0  0  0  0  0  0  0  0
  2  1  1  0  0  0  0
  3  1  1  0  0  0  0
  4  5  1  0  0  0  0
  4  3  1  0  0  0  0
  5  2  1  0  0  0  0
  6  4  2  0  0  0  0
  6 12  1  0  0  0  0
  6 19  1  0  0  0  0
  7 11  1  0  0  0  0
  8  7  3  0  0  0  0
  8 20  1  0  0  0  0
  9  2  2  0  0  0  0
 10  3  2  0  0  0  0
 11  1  1  0  0  0  0
 11 21  1  0  0  0  0
 11 22  1  0  0  0  0
 13 12  2  0  0  0  0
 13 23  1  0  0  0  0
 14 13  1  0  0  0  0
 14 18  2  0  0  0  0
 15 14  1  0  0  0  0
 16 17  2  0  0  0  0
 16 24  1  0  0  0  0
 17 12  1  0  0  0  0
 17 25  1  0  0  0  0
 18 16  1  0  0  0  0
 18 26  1  0  0  0  0
M  END
>  <Mol Weight>
261.272

>  <Click ID>
CLK016_A05

>  <Plant Activity>
0

>  <Yeast Activity>
1

$$$$

 OpenBabel11211206003D

 42 43  0  0  0  0  0  0  0  0999 V2000
   -0.1811    2.6791   -1.0981 C   0  0  0  0  0  0  0  0  0  0  0  0
   -0.2948    2.8687   -2.5515 C   0  0  0  0  0  0  0  0  0  0  0  0
   -1.3807    2.7940   -0.2549 C   0  0  0  0  0  0  0  0  0  0  0  0
   -1.3487    3.6069   -2.9536 O   0  0  0  0  0  0  0  0  0  0  0  0
   -2.4478    3.3605   -0.8505 O   0  0  0  0  0  0  0  0  0  0  0  0
   -2.2197    4.1897   -1.9871 C   0  0  0  0  0  0  0  0  0  0  0  0
    0.9730    2.3748   -0.4696 C   0  0  0  0  0  0  0  0  0  0  0  0
    7.3713   -0.1053   -2.1651 C   0  0  0  0  0  0  0  0  0  0  0  0
    7.9547   -0.6196   -1.2500 C   0  0  0  0  0  0  0  0  0  0  0  0
    3.9319    0.6378   -2.0512 C   0  0  0  0  0  0  0  0  0  0  0  0
    2.2813    2.1754   -1.0980 C   0  0  0  0  0  0  0  0  0  0  0  0
   -1.4370    2.3814    0.8964 O   0  0  0  0  0  0  0  0  0  0  0  0
    0.4810    2.3922   -3.3674 O   0  0  0  0  0  0  0  0  0  0  0  0
    2.6856    0.8803   -1.4484 C   0  0  0  0  0  0  0  0  0  0  0  0
    4.7831    1.7269   -2.3043 C   0  0  0  0  0  0  0  0  0  0  0  0
    4.3667    3.0209   -1.9461 C   0  0  0  0  0  0  0  0  0  0  0  0
    3.1285    3.2499   -1.3463 C   0  0  0  0  0  0  0  0  0  0  0  0
    4.3489   -0.6168   -2.4037 O   0  0  0  0  0  0  0  0  0  0  0  0
    6.0269    1.7416   -2.8775 O   0  0  0  0  0  0  0  0  0  0  0  0
   -1.6991    5.5606   -1.5463 C   0  0  0  0  0  0  0  0  0  0  0  0
   -3.5708    4.3585   -2.6822 C   0  0  0  0  0  0  0  0  0  0  0  0
    6.6721    0.5371   -3.2870 C   0  0  0  0  0  0  0  0  0  0  0  0
    3.4930   -1.7237   -2.1288 C   0  0  0  0  0  0  0  0  0  0  0  0
    4.1948   -2.9870   -2.5927 C   0  0  0  0  0  0  0  0  0  0  0  0
    0.9925    2.2340    0.6114 H   0  0  0  0  0  0  0  0  0  0  0  0
    8.4708   -1.0686   -0.4328 H   0  0  0  0  0  0  0  0  0  0  0  0
    1.9948    0.0677   -1.2472 H   0  0  0  0  0  0  0  0  0  0  0  0
    5.0269    3.8639   -2.1412 H   0  0  0  0  0  0  0  0  0  0  0  0
    2.8446    4.2646   -1.0828 H   0  0  0  0  0  0  0  0  0  0  0  0
   -0.7263    5.4796   -1.0498 H   0  0  0  0  0  0  0  0  0  0  0  0
   -2.3831    6.0279   -0.8293 H   0  0  0  0  0  0  0  0  0  0  0  0
   -1.5635    6.2285   -2.4031 H   0  0  0  0  0  0  0  0  0  0  0  0
   -3.9421    3.3880   -3.0326 H   0  0  0  0  0  0  0  0  0  0  0  0
   -3.4896    5.0067   -3.5616 H   0  0  0  0  0  0  0  0  0  0  0  0
   -4.3253    4.7672   -2.0019 H   0  0  0  0  0  0  0  0  0  0  0  0
    7.4318    0.8455   -4.0168 H   0  0  0  0  0  0  0  0  0  0  0  0
    6.0124   -0.1284   -3.8497 H   0  0  0  0  0  0  0  0  0  0  0  0
    2.5491   -1.6204   -2.6764 H   0  0  0  0  0  0  0  0  0  0  0  0
    3.3019   -1.7993   -1.0523 H   0  0  0  0  0  0  0  0  0  0  0  0
    4.4068   -2.9381   -3.6658 H   0  0  0  0  0  0  0  0  0  0  0  0
    3.5792   -3.8688   -2.3940 H   0  0  0  0  0  0  0  0  0  0  0  0
    5.1562   -3.1037   -2.0818 H   0  0  0  0  0  0  0  0  0  0  0  0
  2  1  1  0  0  0  0
  3  1  1  0  0  0  0
  4  2  1  0  0  0  0
  5  3  1  0  0  0  0
  6  4  1  0  0  0  0
  6  5  1  0  0  0  0
  7  1  2  0  0  0  0
  7 11  1  0  0  0  0
  7 25  1  0  0  0  0
  8 22  1  0  0  0  0
  9  8  3  0  0  0  0
  9 26  1  0  0  0  0
 10 14  1  0  0  0  0
 12  3  2  0  0  0  0
 13  2  2  0  0  0  0
 14 11  2  0  0  0  0
 14 27  1  0  0  0  0
 15 10  2  0  0  0  0
 15 16  1  0  0  0  0
 16 17  2  0  0  0  0
 16 28  1  0  0  0  0
 17 11  1  0  0  0  0
 17 29  1  0  0  0  0
 18 10  1  0  0  0  0
 19 15  1  0  0  0  0
 20  6  1  0  0  0  0
 20 30  1  0  0  0  0
 20 31  1  0  0  0  0
 20 32  1  0  0  0  0
 21  6  1  0  0  0  0
 21 33  1  0  0  0  0
 21 34  1  0  0  0  0
 21 35  1  0  0  0  0
 22 19  1  0  0  0  0
 22 36  1  0  0  0  0
 22 37  1  0  0  0  0
 23 18  1  0  0  0  0
 23 38  1  0  0  0  0
 23 39  1  0  0  0  0
 24 23  1  0  0  0  0
 24 40  1  0  0  0  0
 24 41  1  0  0  0  0
 24 42  1  0  0  0  0
M  END
>  <Mol Weight>
330.3319

>  <Click ID>
CLK015_H03

>  <Plant Activity>
0

>  <Yeast Activity>
1

$$$$

 OpenBabel11211206003D

 24 24  0  0  0  0  0  0  0  0999 V2000
   -5.9625   -3.4075    8.0255 N   0  3  0  0  0  0  0  0  0  0  0  0
   -5.0746   -3.7161    6.9305 C   0  0  0  0  0  0  0  0  0  0  0  0
   -3.7640   -3.8561    7.1569 C   0  0  0  0  0  0  0  0  0  0  0  0
   -2.2672    0.4405    5.4153 C   0  0  0  0  0  0  0  0  0  0  0  0
   -2.6293    1.5137    5.8108 C   0  0  0  0  0  0  0  0  0  0  0  0
   -7.1579   -3.2879    7.7298 O   0  5  0  0  0  0  0  0  0  0  0  0
   -5.4968   -3.3027    9.1676 O   0  0  0  0  0  0  0  0  0  0  0  0
   -2.8482   -4.1933    6.0616 C   0  0  0  0  0  0  0  0  0  0  0  0
   -2.1991   -3.1982    5.3049 C   0  0  0  0  0  0  0  0  0  0  0  0
   -2.4886   -1.8996    5.6403 O   0  0  0  0  0  0  0  0  0  0  0  0
   -1.8169   -0.8684    4.9187 C   0  0  0  0  0  0  0  0  0  0  0  0
   -2.6243   -5.5484    5.7769 C   0  0  0  0  0  0  0  0  0  0  0  0
   -1.3253   -3.5833    4.2817 C   0  0  0  0  0  0  0  0  0  0  0  0
   -1.1051   -4.9368    4.0089 C   0  0  0  0  0  0  0  0  0  0  0  0
   -1.7550   -5.9177    4.7524 C   0  0  0  0  0  0  0  0  0  0  0  0
   -5.6048   -3.8150    5.9967 H   0  0  0  0  0  0  0  0  0  0  0  0
   -3.3075   -3.7252    8.1343 H   0  0  0  0  0  0  0  0  0  0  0  0
   -2.9536    2.4664    6.1646 H   0  0  0  0  0  0  0  0  0  0  0  0
   -2.0534   -0.9401    3.8505 H   0  0  0  0  0  0  0  0  0  0  0  0
   -0.7335   -0.9530    5.0646 H   0  0  0  0  0  0  0  0  0  0  0  0
   -3.1195   -6.3253    6.3560 H   0  0  0  0  0  0  0  0  0  0  0  0
   -0.7942   -2.8589    3.6730 H   0  0  0  0  0  0  0  0  0  0  0  0
   -0.4221   -5.2247    3.2127 H   0  0  0  0  0  0  0  0  0  0  0  0
   -1.5812   -6.9693    4.5374 H   0  0  0  0  0  0  0  0  0  0  0  0
  2  1  1  0  0  0  0
  2 16  1  0  0  0  0
  3  2  2  0  0  0  0
  3  8  1  0  0  0  0
  3 17  1  0  0  0  0
  4 11  1  0  0  0  0
  5  4  3  0  0  0  0
  5 18  1  0  0  0  0
  6  1  1  0  0  0  0
  7  1  2  0  0  0  0
  9  8  2  0  0  0  0
 10  9  1  0  0  0  0
 11 10  1  0  0  0  0
 11 19  1  0  0  0  0
 11 20  1  0  0  0  0
 12  8  1  0  0  0  0
 12 21  1  0  0  0  0
 13  9  1  0  0  0  0
 13 14  2  0  0  0  0
 13 22  1  0  0  0  0
 14 15  1  0  0  0  0
 14 23  1  0  0  0  0
 15 12  2  0  0  0  0
 15 24  1  0  0  0  0
M  CHG  2   1   1   6  -1
M  END
>  <Mol Weight>
203.1941

>  <Click ID>
CLK015_F05

>  <Plant Activity>
1

>  <Yeast Activity>
1

>  <Bioactivity Commet>
could this be a mitochondrial poison. Looks like FCCP and a bit like 2,4-Dinitrophenol

>  <Plant Comment>
germ inhibitor

>  <Yeast Comment>
very strong yeast hit

>  <Strength>
strong

$$$$

 OpenBabel11211206003D

 28 29  0  0  0  0  0  0  0  0999 V2000
   -0.1551   -1.2229    0.0124 C   0  0  0  0  0  0  0  0  0  0  0  0
   -1.3710   -0.4668   -0.0280 C   0  0  0  0  0  0  0  0  0  0  0  0
    4.5200   -1.7936    0.3334 C   0  0  0  0  0  0  0  0  0  0  0  0
    5.3576   -2.6330    0.5185 C   0  0  0  0  0  0  0  0  0  0  0  0
    1.1061   -0.5836   -0.0456 C   0  0  0  0  0  0  0  0  0  0  0  0
   -1.0713   -3.4159    0.6529 N   0  0  0  0  0  0  0  0  0  0  0  0
   -0.1312   -2.7081    0.1073 C   0  0  0  0  0  0  0  0  0  0  0  0
   -1.2684    0.9454   -0.1113 C   0  0  0  0  0  0  0  0  0  0  0  0
    1.1623    0.8057   -0.1451 C   0  0  0  0  0  0  0  0  0  0  0  0
   -0.0113    1.5571   -0.1698 C   0  0  0  0  0  0  0  0  0  0  0  0
   -0.7266   -4.7705    0.5745 O   0  0  0  0  0  0  0  0  0  0  0  0
    2.2193   -1.3855    0.0101 O   0  0  0  0  0  0  0  0  0  0  0  0
    3.4972   -0.7595    0.1188 C   0  0  0  0  0  0  0  0  0  0  0  0
   -2.6863   -1.0024   -0.0145 C   0  0  0  0  0  0  0  0  0  0  0  0
   -2.4214    1.7485   -0.1473 C   0  0  0  0  0  0  0  0  0  0  0  0
   -3.8260   -0.1930   -0.0507 C   0  0  0  0  0  0  0  0  0  0  0  0
   -3.6932    1.1846   -0.1129 C   0  0  0  0  0  0  0  0  0  0  0  0
    6.0974   -3.3819    0.6896 H   0  0  0  0  0  0  0  0  0  0  0  0
    0.7614   -3.2181   -0.2992 H   0  0  0  0  0  0  0  0  0  0  0  0
    2.1010    1.3463   -0.2049 H   0  0  0  0  0  0  0  0  0  0  0  0
    0.0685    2.6409   -0.2424 H   0  0  0  0  0  0  0  0  0  0  0  0
   -1.4767   -5.2028    1.0226 H   0  0  0  0  0  0  0  0  0  0  0  0
    3.5125   -0.0671    0.9688 H   0  0  0  0  0  0  0  0  0  0  0  0
    3.7214   -0.2160   -0.8063 H   0  0  0  0  0  0  0  0  0  0  0  0
   -2.8515   -2.0758    0.0204 H   0  0  0  0  0  0  0  0  0  0  0  0
   -2.3376    2.8321   -0.2063 H   0  0  0  0  0  0  0  0  0  0  0  0
   -4.8128   -0.6483   -0.0307 H   0  0  0  0  0  0  0  0  0  0  0  0
   -4.5746    1.8192   -0.1408 H   0  0  0  0  0  0  0  0  0  0  0  0
  2  1  2  0  0  0  0
  3 13  1  0  0  0  0
  4  3  3  0  0  0  0
  4 18  1  0  0  0  0
  5  1  1  0  0  0  0
  6  7  2  0  0  0  0
  7  1  1  0  0  0  0
  7 19  1  0  0  0  0
  8  2  1  0  0  0  0
  9  5  2  0  0  0  0
  9 20  1  0  0  0  0
 10  9  1  0  0  0  0
 10  8  2  0  0  0  0
 10 21  1  0  0  0  0
 11  6  1  0  0  0  0
 11 22  1  0  0  0  0
 12  5  1  0  0  0  0
 13 12  1  0  0  0  0
 13 23  1  0  0  0  0
 13 24  1  0  0  0  0
 14  2  1  0  0  0  0
 14 25  1  0  0  0  0
 15  8  1  0  0  0  0
 15 17  2  0  0  0  0
 15 26  1  0  0  0  0
 16 14  2  0  0  0  0
 16 27  1  0  0  0  0
 17 16  1  0  0  0  0
 17 28  1  0  0  0  0
M  END
>  <Mol Weight>
225.2426

>  <Click ID>
CLK015_D07

>  <Plant Activity>
0

>  <Yeast Activity>
1

$$$$

 OpenBabel11211206003D

 33 34  0  0  0  0  0  0  0  0999 V2000
    0.1504    1.1557    2.3243 N   0  0  0  0  0  0  0  0  0  0  0  0
   -1.0774    0.6169    2.0637 C   0  0  0  0  0  0  0  0  0  0  0  0
    0.7530    1.8807    1.3236 C   0  0  0  0  0  0  0  0  0  0  0  0
   -0.1191    1.8959    0.1114 C   0  0  0  0  0  0  0  0  0  0  0  0
    2.5093    5.3724   -1.4483 C   0  0  0  0  0  0  0  0  0  0  0  0
    2.4782    6.8193   -1.2105 N   0  3  0  0  0  0  0  0  0  0  0  0
   -1.5688    1.0122    0.4272 S   0  0  0  0  0  0  0  0  0  0  0  0
    3.6560    4.7441   -1.9712 C   0  0  0  0  0  0  0  0  0  0  0  0
    0.1281    2.4831   -1.0673 C   0  0  0  0  0  0  0  0  0  0  0  0
    3.6299    3.3563   -2.1795 C   0  0  0  0  0  0  0  0  0  0  0  0
    1.3290    3.2571   -1.3834 C   0  0  0  0  0  0  0  0  0  0  0  0
    1.3519    4.6324   -1.1515 C   0  0  0  0  0  0  0  0  0  0  0  0
    0.4294    2.0769    4.5240 C   0  0  0  0  0  0  0  0  0  0  0  0
    0.1487    2.9701    5.2758 C   0  0  0  0  0  0  0  0  0  0  0  0
    1.4251    7.3216   -0.7942 O   0  5  0  0  0  0  0  0  0  0  0  0
   -1.7652   -0.0593    2.8107 O   0  0  0  0  0  0  0  0  0  0  0  0
    3.5126    7.4627   -1.4510 O   0  0  0  0  0  0  0  0  0  0  0  0
    2.4626    2.6293   -1.9049 C   0  0  0  0  0  0  0  0  0  0  0  0
    1.8432    2.4274    1.3986 O   0  0  0  0  0  0  0  0  0  0  0  0
    0.7827    0.9797    3.6109 C   0  0  0  0  0  0  0  0  0  0  0  0
    4.7908    5.4296   -2.3222 O   0  0  0  0  0  0  0  0  0  0  0  0
    4.6416    2.5868   -2.6949 O   0  0  0  0  0  0  0  0  0  0  0  0
    5.9661    2.9644   -2.3324 C   0  0  0  0  0  0  0  0  0  0  0  0
   -0.5927    2.4173   -1.8804 H   0  0  0  0  0  0  0  0  0  0  0  0
    0.4684    5.1191   -0.7412 H   0  0  0  0  0  0  0  0  0  0  0  0
   -0.0956    3.7614    5.9471 H   0  0  0  0  0  0  0  0  0  0  0  0
    2.4598    1.5562   -2.0885 H   0  0  0  0  0  0  0  0  0  0  0  0
    1.8696    0.9429    3.4770 H   0  0  0  0  0  0  0  0  0  0  0  0
    0.4688    0.0226    4.0421 H   0  0  0  0  0  0  0  0  0  0  0  0
    4.6949    6.3842   -2.1215 H   0  0  0  0  0  0  0  0  0  0  0  0
    6.5973    2.0741   -2.4177 H   0  0  0  0  0  0  0  0  0  0  0  0
    6.0318    3.3141   -1.2961 H   0  0  0  0  0  0  0  0  0  0  0  0
    6.3588    3.7075   -3.0325 H   0  0  0  0  0  0  0  0  0  0  0  0
  2  1  1  0  0  0  0
  3  1  1  0  0  0  0
  4  7  1  0  0  0  0
  4  3  1  0  0  0  0
  5 12  2  0  0  0  0
  6  5  1  0  0  0  0
  7  2  1  0  0  0  0
  8  5  1  0  0  0  0
  8 10  2  0  0  0  0
  9  4  2  0  0  0  0
  9 11  1  0  0  0  0
  9 24  1  0  0  0  0
 10 18  1  0  0  0  0
 12 11  1  0  0  0  0
 12 25  1  0  0  0  0
 13 20  1  0  0  0  0
 14 13  3  0  0  0  0
 14 26  1  0  0  0  0
 15  6  1  0  0  0  0
 16  2  2  0  0  0  0
 17  6  2  0  0  0  0
 18 11  2  0  0  0  0
 18 27  1  0  0  0  0
 19  3  2  0  0  0  0
 20  1  1  0  0  0  0
 20 28  1  0  0  0  0
 20 29  1  0  0  0  0
 21  8  1  0  0  0  0
 21 30  1  0  0  0  0
 22 10  1  0  0  0  0
 23 22  1  0  0  0  0
 23 31  1  0  0  0  0
 23 32  1  0  0  0  0
 23 33  1  0  0  0  0
M  CHG  2   6   1  15  -1
M  END
>  <Mol Weight>
334.304

>  <Click ID>
CLK014_G07

>  <Plant Activity>
0

>  <Yeast Activity>
1

$$$$

 OpenBabel11211206003D

 27 28  0  0  0  0  0  0  0  0999 V2000
    0.8067   -0.1327    1.4378 N   0  0  0  0  0  0  0  0  0  0  0  0
   -0.5199   -0.4159    1.2804 C   0  0  0  0  0  0  0  0  0  0  0  0
    1.3531    0.8342    0.6270 C   0  0  0  0  0  0  0  0  0  0  0  0
    0.3089    1.3737   -0.2935 C   0  0  0  0  0  0  0  0  0  0  0  0
   -1.1940    0.5730   -0.0008 S   0  0  0  0  0  0  0  0  0  0  0  0
    0.4440    2.3328   -1.2199 C   0  0  0  0  0  0  0  0  0  0  0  0
    2.1918   -2.0512    1.8194 C   0  0  0  0  0  0  0  0  0  0  0  0
    2.6701   -3.0426    1.3355 C   0  0  0  0  0  0  0  0  0  0  0  0
    3.7382    3.2773   -2.7650 C   0  0  0  0  0  0  0  0  0  0  0  0
   -1.1903   -1.2126    1.9168 O   0  0  0  0  0  0  0  0  0  0  0  0
    2.5154    1.2096    0.6575 O   0  0  0  0  0  0  0  0  0  0  0  0
    1.6796    3.0589   -1.5148 C   0  0  0  0  0  0  0  0  0  0  0  0
    1.6070   -0.8385    2.4110 C   0  0  0  0  0  0  0  0  0  0  0  0
    4.0247    4.4611   -2.0829 C   0  0  0  0  0  0  0  0  0  0  0  0
    2.5657    2.5740   -2.4842 C   0  0  0  0  0  0  0  0  0  0  0  0
    3.1486    4.9471   -1.1186 C   0  0  0  0  0  0  0  0  0  0  0  0
    4.9225    2.6077   -4.0835 Br  0  0  0  0  0  0  0  0  0  0  0  0
    1.9749    4.2463   -0.8334 C   0  0  0  0  0  0  0  0  0  0  0  0
    5.1554    5.1905   -2.3230 O   0  0  0  0  0  0  0  0  0  0  0  0
   -0.4061    2.6369   -1.8274 H   0  0  0  0  0  0  0  0  0  0  0  0
    3.0953   -3.9205    0.9082 H   0  0  0  0  0  0  0  0  0  0  0  0
    0.9810   -1.1091    3.2687 H   0  0  0  0  0  0  0  0  0  0  0  0
    2.4036   -0.1802    2.7750 H   0  0  0  0  0  0  0  0  0  0  0  0
    2.3438    1.6510   -3.0137 H   0  0  0  0  0  0  0  0  0  0  0  0
    3.3805    5.8662   -0.5877 H   0  0  0  0  0  0  0  0  0  0  0  0
    1.2995    4.6330   -0.0738 H   0  0  0  0  0  0  0  0  0  0  0  0
    5.6717    4.7103   -2.9956 H   0  0  0  0  0  0  0  0  0  0  0  0
  2  1  1  0  0  0  0
  3  1  1  0  0  0  0
  4  5  1  0  0  0  0
  4  3  1  0  0  0  0
  5  2  1  0  0  0  0
  6  4  2  0  0  0  0
  6 12  1  0  0  0  0
  6 20  1  0  0  0  0
  7 13  1  0  0  0  0
  8  7  3  0  0  0  0
  8 21  1  0  0  0  0
  9 15  1  0  0  0  0
  9 14  2  0  0  0  0
 10  2  2  0  0  0  0
 11  3  2  0  0  0  0
 13  1  1  0  0  0  0
 13 22  1  0  0  0  0
 13 23  1  0  0  0  0
 14 16  1  0  0  0  0
 15 12  2  0  0  0  0
 15 24  1  0  0  0  0
 16 18  2  0  0  0  0
 16 25  1  0  0  0  0
 17  9  1  0  0  0  0
 18 12  1  0  0  0  0
 18 26  1  0  0  0  0
 19 14  1  0  0  0  0
 19 27  1  0  0  0  0
M  END
>  <Mol Weight>
338.177

>  <Click ID>
CLK014_A06

>  <Plant Activity>
0

>  <Yeast Activity>
1

$$$$

 OpenBabel11211206003D

 26 27  0  0  0  0  0  0  0  0999 V2000
    0.8974   -0.1443    1.4034 N   0  0  0  0  0  0  0  0  0  0  0  0
   -0.3549   -0.5713    1.0651 C   0  0  0  0  0  0  0  0  0  0  0  0
    0.4674    1.3325   -0.3704 C   0  0  0  0  0  0  0  0  0  0  0  0
    1.4351    0.8920    0.6773 C   0  0  0  0  0  0  0  0  0  0  0  0
   -0.9711    0.3816   -0.2714 S   0  0  0  0  0  0  0  0  0  0  0  0
    0.6291    2.3032   -1.2802 C   0  0  0  0  0  0  0  0  0  0  0  0
    1.2987   -0.0626    3.7659 C   0  0  0  0  0  0  0  0  0  0  0  0
    1.8300    3.1348   -1.4252 C   0  0  0  0  0  0  0  0  0  0  0  0
    1.0387    0.4940    4.7998 C   0  0  0  0  0  0  0  0  0  0  0  0
   -0.9926   -1.4792    1.5736 O   0  0  0  0  0  0  0  0  0  0  0  0
    2.5399    1.3829    0.8552 O   0  0  0  0  0  0  0  0  0  0  0  0
    1.6161   -0.7450    2.5022 C   0  0  0  0  0  0  0  0  0  0  0  0
    2.9221    2.7577   -2.2240 C   0  0  0  0  0  0  0  0  0  0  0  0
    2.9280    1.2728   -3.1119 Cl  0  0  0  0  0  0  0  0  0  0  0  0
    1.8812    4.3547   -0.7355 C   0  0  0  0  0  0  0  0  0  0  0  0
    4.0408    3.5891   -2.3291 C   0  0  0  0  0  0  0  0  0  0  0  0
    3.0016    5.1819   -0.8415 C   0  0  0  0  0  0  0  0  0  0  0  0
    4.0798    4.8002   -1.6375 C   0  0  0  0  0  0  0  0  0  0  0  0
   -0.1549    2.5234   -2.0014 H   0  0  0  0  0  0  0  0  0  0  0  0
    0.8093    0.9849    5.7168 H   0  0  0  0  0  0  0  0  0  0  0  0
    2.6929   -0.6880    2.3090 H   0  0  0  0  0  0  0  0  0  0  0  0
    1.3467   -1.8045    2.5758 H   0  0  0  0  0  0  0  0  0  0  0  0
    1.0527    4.6673   -0.1035 H   0  0  0  0  0  0  0  0  0  0  0  0
    4.8870    3.2967   -2.9454 H   0  0  0  0  0  0  0  0  0  0  0  0
    3.0347    6.1223   -0.2964 H   0  0  0  0  0  0  0  0  0  0  0  0
    4.9533    5.4429   -1.7155 H   0  0  0  0  0  0  0  0  0  0  0  0
  2  1  1  0  0  0  0
  3  5  1  0  0  0  0
  3  4  1  0  0  0  0
  4  1  1  0  0  0  0
  5  2  1  0  0  0  0
  6  3  2  0  0  0  0
  6  8  1  0  0  0  0
  6 19  1  0  0  0  0
  7 12  1  0  0  0  0
  9  7  3  0  0  0  0
  9 20  1  0  0  0  0
 10  2  2  0  0  0  0
 11  4  2  0  0  0  0
 12  1  1  0  0  0  0
 12 21  1  0  0  0  0
 12 22  1  0  0  0  0
 13  8  1  0  0  0  0
 14 13  1  0  0  0  0
 15  8  2  0  0  0  0
 15 23  1  0  0  0  0
 16 13  2  0  0  0  0
 16 24  1  0  0  0  0
 17 15  1  0  0  0  0
 17 25  1  0  0  0  0
 18 16  1  0  0  0  0
 18 17  2  0  0  0  0
 18 26  1  0  0  0  0
M  END
>  <Mol Weight>
277.726

>  <Click ID>
CLK013_B05

>  <Plant Activity>
0

>  <Yeast Activity>
1

$$$$

 OpenBabel11211206003D

 28 29  0  0  0  0  0  0  0  0999 V2000
    0.8508   -0.1421    1.4092 N   0  0  0  0  0  0  0  0  0  0  0  0
   -0.4852   -0.3899    1.2674 C   0  0  0  0  0  0  0  0  0  0  0  0
    0.3854    1.3243   -0.3639 C   0  0  0  0  0  0  0  0  0  0  0  0
    1.4192    0.7820    0.5661 C   0  0  0  0  0  0  0  0  0  0  0  0
   -1.1411    0.5921   -0.0298 S   0  0  0  0  0  0  0  0  0  0  0  0
    3.7038    5.9693   -0.5419 N   0  3  0  0  0  0  0  0  0  0  0  0
    0.5576    2.2384   -1.3292 C   0  0  0  0  0  0  0  0  0  0  0  0
    1.8355    2.8877   -1.6488 C   0  0  0  0  0  0  0  0  0  0  0  0
    3.3750    4.7214   -1.2432 C   0  0  0  0  0  0  0  0  0  0  0  0
    2.1543    4.0817   -0.9837 C   0  0  0  0  0  0  0  0  0  0  0  0
    1.6330   -0.0182    3.6725 C   0  0  0  0  0  0  0  0  0  0  0  0
    1.6413    0.6261    4.6871 C   0  0  0  0  0  0  0  0  0  0  0  0
    4.7948    6.5002   -0.7919 O   0  5  0  0  0  0  0  0  0  0  0  0
   -1.1677   -1.1722    1.9084 O   0  0  0  0  0  0  0  0  0  0  0  0
    2.8650    6.4228    0.2495 O   0  0  0  0  0  0  0  0  0  0  0  0
    2.5945    1.1188    0.5632 O   0  0  0  0  0  0  0  0  0  0  0  0
    2.7488    2.3497   -2.5733 C   0  0  0  0  0  0  0  0  0  0  0  0
    1.6261   -0.8063    2.4305 C   0  0  0  0  0  0  0  0  0  0  0  0
    4.2810    4.1842   -2.1664 C   0  0  0  0  0  0  0  0  0  0  0  0
    3.9625    2.9969   -2.8302 C   0  0  0  0  0  0  0  0  0  0  0  0
    2.4158    0.8841   -3.4280 Cl  0  0  0  0  0  0  0  0  0  0  0  0
   -0.2769    2.5496   -1.9543 H   0  0  0  0  0  0  0  0  0  0  0  0
    1.4554    4.4988   -0.2600 H   0  0  0  0  0  0  0  0  0  0  0  0
    1.6509    1.1969    5.5875 H   0  0  0  0  0  0  0  0  0  0  0  0
    2.6522   -0.9454    2.0727 H   0  0  0  0  0  0  0  0  0  0  0  0
    1.2026   -1.7984    2.6226 H   0  0  0  0  0  0  0  0  0  0  0  0
    5.2322    4.6704   -2.3758 H   0  0  0  0  0  0  0  0  0  0  0  0
    4.6681    2.5768   -3.5440 H   0  0  0  0  0  0  0  0  0  0  0  0
  2  1  1  0  0  0  0
  3  4  1  0  0  0  0
  4  1  1  0  0  0  0
  5  2  1  0  0  0  0
  5  3  1  0  0  0  0
  6  9  1  0  0  0  0
  7  3  2  0  0  0  0
  7  8  1  0  0  0  0
  7 22  1  0  0  0  0
  9 10  1  0  0  0  0
 10  8  2  0  0  0  0
 10 23  1  0  0  0  0
 11 18  1  0  0  0  0
 12 11  3  0  0  0  0
 12 24  1  0  0  0  0
 13  6  1  0  0  0  0
 14  2  2  0  0  0  0
 15  6  2  0  0  0  0
 16  4  2  0  0  0  0
 17  8  1  0  0  0  0
 18  1  1  0  0  0  0
 18 25  1  0  0  0  0
 18 26  1  0  0  0  0
 19  9  2  0  0  0  0
 19 20  1  0  0  0  0
 19 27  1  0  0  0  0
 20 17  2  0  0  0  0
 20 28  1  0  0  0  0
 21 17  1  0  0  0  0
M  CHG  2   6   1  13  -1
M  END
>  <Mol Weight>
322.724

>  <Click ID>
CLK012_B06

>  <Plant Activity>
0

>  <Yeast Activity>
1

$$$$

 OpenBabel11211206003D

 36 37  0  0  0  0  0  0  0  0999 V2000
    0.1006    0.6161    0.0780 C   0  0  0  0  0  0  0  0  0  0  0  0
   -1.6462   -1.4856   -0.6627 C   0  0  0  0  0  0  0  0  0  0  0  0
   -2.0975   -0.1492   -0.5763 N   0  0  0  0  0  0  0  0  0  0  0  0
   -0.3652   -1.7250   -0.1306 N   0  0  0  0  0  0  0  0  0  0  0  0
    0.3888   -0.7574    0.5189 C   0  0  0  0  0  0  0  0  0  0  0  0
   -1.2748    0.9498   -0.3270 C   0  0  0  0  0  0  0  0  0  0  0  0
    1.0505    1.5675   -0.0260 C   0  0  0  0  0  0  0  0  0  0  0  0
   -2.5891   -2.7224   -1.3433 S   0  0  0  0  0  0  0  0  0  0  0  0
    8.0630   -0.9588    1.9855 C   0  0  0  0  0  0  0  0  0  0  0  0
    9.0239   -1.6757    1.8912 C   0  0  0  0  0  0  0  0  0  0  0  0
   -1.6266    2.1189   -0.4750 O   0  0  0  0  0  0  0  0  0  0  0  0
    1.1980   -1.0040    1.4084 O   0  0  0  0  0  0  0  0  0  0  0  0
   -3.4793    0.1948   -0.9232 C   0  0  0  0  0  0  0  0  0  0  0  0
    0.1616   -3.0858   -0.0031 C   0  0  0  0  0  0  0  0  0  0  0  0
    2.4798    1.3405    0.2000 C   0  0  0  0  0  0  0  0  0  0  0  0
    5.1666    0.6993    0.6694 C   0  0  0  0  0  0  0  0  0  0  0  0
    3.0446    1.5544    1.4602 C   0  0  0  0  0  0  0  0  0  0  0  0
    3.2770    0.8497   -0.8388 C   0  0  0  0  0  0  0  0  0  0  0  0
    4.6172    0.5386   -0.6034 C   0  0  0  0  0  0  0  0  0  0  0  0
    4.3870    1.2376    1.6941 C   0  0  0  0  0  0  0  0  0  0  0  0
    6.8731   -0.1037    2.0996 C   0  0  0  0  0  0  0  0  0  0  0  0
    6.4711    0.3070    0.7917 O   0  0  0  0  0  0  0  0  0  0  0  0
    0.8027    2.5718   -0.3652 H   0  0  0  0  0  0  0  0  0  0  0  0
    9.8693   -2.3163    1.7999 H   0  0  0  0  0  0  0  0  0  0  0  0
   -4.1756   -0.5416   -0.5115 H   0  0  0  0  0  0  0  0  0  0  0  0
   -3.5717    0.2207   -2.0136 H   0  0  0  0  0  0  0  0  0  0  0  0
   -3.7669    1.1715   -0.5224 H   0  0  0  0  0  0  0  0  0  0  0  0
    1.2113   -3.0888    0.3079 H   0  0  0  0  0  0  0  0  0  0  0  0
    0.1066   -3.6018   -0.9661 H   0  0  0  0  0  0  0  0  0  0  0  0
   -0.4291   -3.6290    0.7410 H   0  0  0  0  0  0  0  0  0  0  0  0
    2.4366    1.9336    2.2782 H   0  0  0  0  0  0  0  0  0  0  0  0
    2.8619    0.6851   -1.8299 H   0  0  0  0  0  0  0  0  0  0  0  0
    5.2292    0.1386   -1.4080 H   0  0  0  0  0  0  0  0  0  0  0  0
    4.7900    1.4103    2.6865 H   0  0  0  0  0  0  0  0  0  0  0  0
    6.0806   -0.6767    2.5974 H   0  0  0  0  0  0  0  0  0  0  0  0
    7.1107    0.7835    2.6980 H   0  0  0  0  0  0  0  0  0  0  0  0
  2  3  1  0  0  0  0
  3  6  1  0  0  0  0
  4  5  1  0  0  0  0
  4  2  1  0  0  0  0
  5  1  1  0  0  0  0
  6  1  1  0  0  0  0
  7  1  2  0  0  0  0
  7 15  1  0  0  0  0
  7 23  1  0  0  0  0
  8  2  2  0  0  0  0
  9 21  1  0  0  0  0
 10  9  3  0  0  0  0
 10 24  1  0  0  0  0
 11  6  2  0  0  0  0
 12  5  2  0  0  0  0
 13  3  1  0  0  0  0
 13 25  1  0  0  0  0
 13 26  1  0  0  0  0
 13 27  1  0  0  0  0
 14  4  1  0  0  0  0
 14 28  1  0  0  0  0
 14 29  1  0  0  0  0
 14 30  1  0  0  0  0
 16 19  2  0  0  0  0
 17 15  1  0  0  0  0
 17 31  1  0  0  0  0
 18 15  2  0  0  0  0
 18 32  1  0  0  0  0
 19 18  1  0  0  0  0
 19 33  1  0  0  0  0
 20 17  2  0  0  0  0
 20 16  1  0  0  0  0
 20 34  1  0  0  0  0
 21 22  1  0  0  0  0
 21 35  1  0  0  0  0
 21 36  1  0  0  0  0
 22 16  1  0  0  0  0
M  END
>  <Mol Weight>
314.359

>  <Click ID>
CLK011_C05

>  <Plant Activity>
0

>  <Yeast Activity>
1

$$$$

 OpenBabel11211206003D

 44 45  0  0  1  0  0  0  0  0999 V2000
   -0.2814    0.5516    0.3433 C   0  0  0  0  0  0  0  0  0  0  0  0
   -2.1850   -1.1982    1.3430 C   0  0  3  0  0  0  0  0  0  0  0  0
    0.0322   -0.3259    1.4740 C   0  0  0  0  0  0  0  0  0  0  0  0
   -1.6401    0.6036   -0.2044 C   0  0  0  0  0  0  0  0  0  0  0  0
   -2.5112   -0.3008    0.2718 O   0  0  0  0  0  0  0  0  0  0  0  0
   -0.7851   -1.3876    1.5681 O   0  0  0  0  0  0  0  0  0  0  0  0
    0.6565    1.2813   -0.2973 C   0  0  0  0  0  0  0  0  0  0  0  0
   -2.7837   -2.6073    0.9734 C   0  0  0  0  0  0  0  0  0  0  0  0
    8.2288    1.5593    1.8134 C   0  0  0  0  0  0  0  0  0  0  0  0
    9.3888    1.2633    1.9061 C   0  0  0  0  0  0  0  0  0  0  0  0
    0.9785   -0.1841    2.2328 O   0  0  0  0  0  0  0  0  0  0  0  0
   -1.9804    1.4025   -1.0694 O   0  0  0  0  0  0  0  0  0  0  0  0
    2.0937    1.2756   -0.0157 C   0  0  0  0  0  0  0  0  0  0  0  0
   -2.7819   -0.5998    2.6261 C   0  0  0  0  0  0  0  0  0  0  0  0
    4.8438    1.2141    0.5484 C   0  0  0  0  0  0  0  0  0  0  0  0
    2.9183    0.3375   -0.6419 C   0  0  0  0  0  0  0  0  0  0  0  0
    2.6502    2.1889    0.8832 C   0  0  0  0  0  0  0  0  0  0  0  0
    4.2854    0.3107   -0.3591 C   0  0  0  0  0  0  0  0  0  0  0  0
    4.0212    2.1574    1.1658 C   0  0  0  0  0  0  0  0  0  0  0  0
    6.8065    1.9173    1.7038 C   0  0  0  0  0  0  0  0  0  0  0  0
    6.1898    1.0669    0.7391 O   0  0  0  0  0  0  0  0  0  0  0  0
   -2.4923   -3.6574    2.0665 C   0  0  0  0  0  0  0  0  0  0  0  0
   -4.3085   -2.5466    0.7483 C   0  0  0  0  0  0  0  0  0  0  0  0
   -2.1390   -3.1129   -0.3412 C   0  0  0  0  0  0  0  0  0  0  0  0
    0.3892    1.9064   -1.1497 H   0  0  0  0  0  0  0  0  0  0  0  0
   10.4168    0.9924    1.9848 H   0  0  0  0  0  0  0  0  0  0  0  0
   -2.3584    0.3938    2.8171 H   0  0  0  0  0  0  0  0  0  0  0  0
   -2.5527   -1.2081    3.5063 H   0  0  0  0  0  0  0  0  0  0  0  0
   -3.8637   -0.4579    2.5499 H   0  0  0  0  0  0  0  0  0  0  0  0
    2.5106   -0.3832   -1.3462 H   0  0  0  0  0  0  0  0  0  0  0  0
    2.0207    2.9192    1.3861 H   0  0  0  0  0  0  0  0  0  0  0  0
    4.9213   -0.4270   -0.8428 H   0  0  0  0  0  0  0  0  0  0  0  0
    4.4051    2.8781    1.8793 H   0  0  0  0  0  0  0  0  0  0  0  0
    6.3305    1.7889    2.6834 H   0  0  0  0  0  0  0  0  0  0  0  0
    6.7223    2.9634    1.3859 H   0  0  0  0  0  0  0  0  0  0  0  0
   -1.4179   -3.7616    2.2528 H   0  0  0  0  0  0  0  0  0  0  0  0
   -2.8672   -4.6446    1.7715 H   0  0  0  0  0  0  0  0  0  0  0  0
   -2.9767   -3.4000    3.0137 H   0  0  0  0  0  0  0  0  0  0  0  0
   -4.5756   -1.8143   -0.0206 H   0  0  0  0  0  0  0  0  0  0  0  0
   -4.8430   -2.2853    1.6667 H   0  0  0  0  0  0  0  0  0  0  0  0
   -4.6946   -3.5189    0.4204 H   0  0  0  0  0  0  0  0  0  0  0  0
   -2.3434   -2.4345   -1.1767 H   0  0  0  0  0  0  0  0  0  0  0  0
   -2.5304   -4.0983   -0.6195 H   0  0  0  0  0  0  0  0  0  0  0  0
   -1.0519   -3.2094   -0.2459 H   0  0  0  0  0  0  0  0  0  0  0  0
  2  5  1  0  0  0  0
  3  1  1  0  0  0  0
  4  1  1  0  0  0  0
  5  4  1  0  0  0  0
  6  3  1  0  0  0  0
  6  2  1  0  0  0  0
  7  1  2  0  0  0  0
  7 13  1  0  0  0  0
  7 25  1  0  0  0  0
  8  2  1  0  0  0  0
  9 20  1  0  0  0  0
 10  9  3  0  0  0  0
 10 26  1  0  0  0  0
 11  3  2  0  0  0  0
 12  4  2  0  0  0  0
 14  2  1  0  0  0  0
 14 27  1  0  0  0  0
 14 28  1  0  0  0  0
 14 29  1  0  0  0  0
 15 19  1  0  0  0  0
 16 13  2  0  0  0  0
 16 30  1  0  0  0  0
 17 13  1  0  0  0  0
 17 31  1  0  0  0  0
 18 16  1  0  0  0  0
 18 15  2  0  0  0  0
 18 32  1  0  0  0  0
 19 17  2  0  0  0  0
 19 33  1  0  0  0  0
 20 21  1  0  0  0  0
 20 34  1  0  0  0  0
 20 35  1  0  0  0  0
 21 15  1  0  0  0  0
 22  8  1  0  0  0  0
 22 36  1  0  0  0  0
 22 37  1  0  0  0  0
 22 38  1  0  0  0  0
 23  8  1  0  0  0  0
 23 39  1  0  0  0  0
 23 40  1  0  0  0  0
 23 41  1  0  0  0  0
 24  8  1  0  0  0  0
 24 42  1  0  0  0  0
 24 43  1  0  0  0  0
 24 44  1  0  0  0  0
M  END
>  <Mol Weight>
328.3591

>  <Click ID>
CLK011_B06

>  <Plant Activity>
0

>  <Yeast Activity>
1

$$$$

 OpenBabel11211206003D

 30 31  0  0  0  0  0  0  0  0999 V2000
    0.4166    2.5238    0.5371 C   0  0  0  0  0  0  0  0  0  0  0  0
    0.6901    2.5363    2.9316 N   0  0  0  0  0  0  0  0  0  0  0  0
   -1.4595    2.4595    2.0572 N   0  0  0  0  0  0  0  0  0  0  0  0
    1.3181    2.6170    1.7144 C   0  0  0  0  0  0  0  0  0  0  0  0
   -1.0555    2.5044    0.7500 C   0  0  0  0  0  0  0  0  0  0  0  0
   -0.6503    2.4613    3.1496 C   0  0  0  0  0  0  0  0  0  0  0  0
    0.8369    2.4213   -0.7389 C   0  0  0  0  0  0  0  0  0  0  0  0
    8.0220    2.5395   -3.9176 C   0  0  0  0  0  0  0  0  0  0  0  0
    9.0411    2.1574   -4.4304 C   0  0  0  0  0  0  0  0  0  0  0  0
   -1.2751    2.3847    4.6874 S   0  0  0  0  0  0  0  0  0  0  0  0
    2.5312    2.7739    1.6569 O   0  0  0  0  0  0  0  0  0  0  0  0
   -1.8769    2.5141   -0.1612 O   0  0  0  0  0  0  0  0  0  0  0  0
    2.2193    2.3332   -1.2129 C   0  0  0  0  0  0  0  0  0  0  0  0
    4.8265    2.1376   -2.2429 C   0  0  0  0  0  0  0  0  0  0  0  0
    2.9157    3.4825   -1.5957 C   0  0  0  0  0  0  0  0  0  0  0  0
    2.8366    1.0856   -1.3322 C   0  0  0  0  0  0  0  0  0  0  0  0
    4.2172    3.3858   -2.1047 C   0  0  0  0  0  0  0  0  0  0  0  0
    4.1332    0.9924   -1.8440 C   0  0  0  0  0  0  0  0  0  0  0  0
    6.7747    3.0128   -3.3003 C   0  0  0  0  0  0  0  0  0  0  0  0
    6.0751    1.8993   -2.7485 O   0  0  0  0  0  0  0  0  0  0  0  0
    1.3001    2.5815    3.7379 H   0  0  0  0  0  0  0  0  0  0  0  0
   -2.4599    2.4216    2.2067 H   0  0  0  0  0  0  0  0  0  0  0  0
    0.1107    2.3529   -1.5495 H   0  0  0  0  0  0  0  0  0  0  0  0
    9.9411    1.8144   -4.8851 H   0  0  0  0  0  0  0  0  0  0  0  0
    2.4550    4.4628   -1.5009 H   0  0  0  0  0  0  0  0  0  0  0  0
    2.3159    0.1771   -1.0411 H   0  0  0  0  0  0  0  0  0  0  0  0
    4.7207    4.3051   -2.3834 H   0  0  0  0  0  0  0  0  0  0  0  0
    4.6052    0.0173   -1.9380 H   0  0  0  0  0  0  0  0  0  0  0  0
    7.0132    3.7301   -2.5069 H   0  0  0  0  0  0  0  0  0  0  0  0
    6.1654    3.5030   -4.0693 H   0  0  0  0  0  0  0  0  0  0  0  0
  2  4  1  0  0  0  0
  2  6  1  0  0  0  0
  2 21  1  0  0  0  0
  3  5  1  0  0  0  0
  3 22  1  0  0  0  0
  4  1  1  0  0  0  0
  5  1  1  0  0  0  0
  6  3  1  0  0  0  0
  7  1  2  0  0  0  0
  7 13  1  0  0  0  0
  7 23  1  0  0  0  0
  8 19  1  0  0  0  0
  9  8  3  0  0  0  0
  9 24  1  0  0  0  0
 10  6  2  0  0  0  0
 11  4  2  0  0  0  0
 12  5  2  0  0  0  0
 14 18  2  0  0  0  0
 15 13  1  0  0  0  0
 15 25  1  0  0  0  0
 16 13  2  0  0  0  0
 16 26  1  0  0  0  0
 17 15  2  0  0  0  0
 17 14  1  0  0  0  0
 17 27  1  0  0  0  0
 18 16  1  0  0  0  0
 18 28  1  0  0  0  0
 19 20  1  0  0  0  0
 19 29  1  0  0  0  0
 19 30  1  0  0  0  0
 20 14  1  0  0  0  0
M  END
>  <Mol Weight>
286.306

>  <Click ID>
CLK011_A09

>  <Plant Activity>
0

>  <Yeast Activity>
1

$$$$

 OpenBabel11211206003D

 39 41  0  0  0  0  0  0  0  0999 V2000
   -0.3468    0.2374    0.3451 N   0  0  0  0  0  0  0  0  0  0  0  0
    0.7064    0.0004   -0.5342 C   0  0  0  0  0  0  0  0  0  0  0  0
    0.9214    0.9972   -1.3594 N   0  0  0  0  0  0  0  0  0  0  0  0
    3.5143   -5.8015    2.2393 N   0  3  0  0  0  0  0  0  0  0  0  0
   -0.8925    1.4577   -0.0634 C   0  0  0  0  0  0  0  0  0  0  0  0
   -0.8208   -0.5422    1.4169 C   0  0  0  0  0  0  0  0  0  0  0  0
   -0.0748    1.8940   -1.1022 C   0  0  0  0  0  0  0  0  0  0  0  0
    0.1704   -1.4028    2.0948 C   0  0  0  0  0  0  0  0  0  0  0  0
    2.6354   -4.9840    3.0695 C   0  0  0  0  0  0  0  0  0  0  0  0
    4.1424   -2.0409   -1.2242 C   0  0  0  0  0  0  0  0  0  0  0  0
    4.9307   -2.9483   -1.1720 C   0  0  0  0  0  0  0  0  0  0  0  0
    4.6889   -5.9328    2.6110 O   0  5  0  0  0  0  0  0  0  0  0  0
   -0.2074   -2.5681    2.6390 C   0  0  0  0  0  0  0  0  0  0  0  0
    3.0291   -6.3086    1.2192 O   0  0  0  0  0  0  0  0  0  0  0  0
    1.5470   -1.5152   -0.6871 S   0  0  0  0  0  0  0  0  0  0  0  0
   -1.9759   -0.4222    1.8089 O   0  0  0  0  0  0  0  0  0  0  0  0
    1.6196   -4.2369    2.4624 C   0  0  0  0  0  0  0  0  0  0  0  0
    0.7967   -3.4311    3.2578 C   0  0  0  0  0  0  0  0  0  0  0  0
    3.1679   -0.9443   -1.2788 C   0  0  0  0  0  0  0  0  0  0  0  0
   -1.9771    2.2236    0.3956 C   0  0  0  0  0  0  0  0  0  0  0  0
   -0.3441    3.1167   -1.7362 C   0  0  0  0  0  0  0  0  0  0  0  0
    2.8360   -4.9468    4.4541 C   0  0  0  0  0  0  0  0  0  0  0  0
    1.9997   -4.1548    5.2409 C   0  0  0  0  0  0  0  0  0  0  0  0
    0.9860   -3.3989    4.6449 C   0  0  0  0  0  0  0  0  0  0  0  0
   -2.2289    3.4421   -0.2455 C   0  0  0  0  0  0  0  0  0  0  0  0
   -1.4296    3.8823   -1.2989 C   0  0  0  0  0  0  0  0  0  0  0  0
    1.2007   -1.0646    2.1321 H   0  0  0  0  0  0  0  0  0  0  0  0
    5.6179   -3.7613   -1.1264 H   0  0  0  0  0  0  0  0  0  0  0  0
   -1.2352   -2.9209    2.6192 H   0  0  0  0  0  0  0  0  0  0  0  0
    1.4822   -4.2657    1.3826 H   0  0  0  0  0  0  0  0  0  0  0  0
    3.5130   -0.1179   -0.6481 H   0  0  0  0  0  0  0  0  0  0  0  0
    3.0689   -0.5723   -2.3039 H   0  0  0  0  0  0  0  0  0  0  0  0
   -2.6071    1.8940    1.2174 H   0  0  0  0  0  0  0  0  0  0  0  0
    0.2812    3.4528   -2.5564 H   0  0  0  0  0  0  0  0  0  0  0  0
    3.6301   -5.5236    4.9234 H   0  0  0  0  0  0  0  0  0  0  0  0
    2.1420   -4.1156    6.3187 H   0  0  0  0  0  0  0  0  0  0  0  0
    0.3527   -2.7712    5.2701 H   0  0  0  0  0  0  0  0  0  0  0  0
   -3.0655    4.0547    0.0856 H   0  0  0  0  0  0  0  0  0  0  0  0
   -1.6496    4.8292   -1.7864 H   0  0  0  0  0  0  0  0  0  0  0  0
  2  1  1  0  0  0  0
  3  2  2  0  0  0  0
  4  9  1  0  0  0  0
  5  1  1  0  0  0  0
  6  1  1  0  0  0  0
  7  3  1  0  0  0  0
  7  5  1  0  0  0  0
  8  6  1  0  0  0  0
  8 27  1  0  0  0  0
  9 17  2  0  0  0  0
 10 19  1  0  0  0  0
 11 10  3  0  0  0  0
 11 28  1  0  0  0  0
 12  4  1  0  0  0  0
 13  8  2  0  0  0  0
 13 18  1  0  0  0  0
 13 29  1  0  0  0  0
 14  4  2  0  0  0  0
 15  2  1  0  0  0  0
 16  6  2  0  0  0  0
 17 18  1  0  0  0  0
 17 30  1  0  0  0  0
 19 15  1  0  0  0  0
 19 31  1  0  0  0  0
 19 32  1  0  0  0  0
 20  5  2  0  0  0  0
 20 33  1  0  0  0  0
 21  7  2  0  0  0  0
 21 34  1  0  0  0  0
 22  9  1  0  0  0  0
 22 23  2  0  0  0  0
 22 35  1  0  0  0  0
 23 24  1  0  0  0  0
 23 36  1  0  0  0  0
 24 18  2  0  0  0  0
 24 37  1  0  0  0  0
 25 20  1  0  0  0  0
 25 38  1  0  0  0  0
 26 25  2  0  0  0  0
 26 21  1  0  0  0  0
 26 39  1  0  0  0  0
M  CHG  2   4   1  12  -1
M  END
>  <Mol Weight>
363.39

>  <Click ID>
CLK010_H03

>  <Plant Activity>
0

>  <Yeast Activity>
1

$$$$

 OpenBabel11211206013D

 39 41  0  0  1  0  0  0  0  0999 V2000
    0.6180    1.4516    0.5503 C   0  0  0  0  0  0  0  0  0  0  0  0
   -0.7805    1.7300    0.9124 C   0  0  0  0  0  0  0  0  0  0  0  0
    1.4844    0.7451    1.5054 C   0  0  0  0  0  0  0  0  0  0  0  0
    0.8377    0.0409    2.4566 O   0  0  0  0  0  0  0  0  0  0  0  0
   -1.2610    1.0215    1.9519 O   0  0  0  0  0  0  0  0  0  0  0  0
   -0.5626   -0.1662    2.3105 C   0  0  3  0  0  0  0  0  0  0  0  0
    1.0275    1.9006   -0.6533 C   0  0  0  0  0  0  0  0  0  0  0  0
    7.6826    0.8861   -4.6712 C   0  0  0  0  0  0  0  0  0  0  0  0
    8.7779    1.0825   -5.1228 C   0  0  0  0  0  0  0  0  0  0  0  0
   -1.4712    2.5646    0.3410 O   0  0  0  0  0  0  0  0  0  0  0  0
    2.7059    0.7956    1.4939 O   0  0  0  0  0  0  0  0  0  0  0  0
   -0.9074   -1.3408    1.4028 C   0  0  0  0  0  0  0  0  0  0  0  0
    2.3580    1.7481   -1.2451 C   0  0  0  0  0  0  0  0  0  0  0  0
    4.8791    1.4976   -2.4561 C   0  0  0  0  0  0  0  0  0  0  0  0
    3.3159    2.7525   -1.0880 C   0  0  0  0  0  0  0  0  0  0  0  0
    2.6718    0.6103   -1.9945 C   0  0  0  0  0  0  0  0  0  0  0  0
    4.5724    2.6202   -1.6844 C   0  0  0  0  0  0  0  0  0  0  0  0
    3.9293    0.4848   -2.5976 C   0  0  0  0  0  0  0  0  0  0  0  0
    6.3436    0.6360   -4.1159 C   0  0  0  0  0  0  0  0  0  0  0  0
    6.1360    1.4959   -2.9962 O   0  0  0  0  0  0  0  0  0  0  0  0
   -2.1999   -1.4644    0.8630 C   0  0  0  0  0  0  0  0  0  0  0  0
    0.0236   -2.3603    1.1420 C   0  0  0  0  0  0  0  0  0  0  0  0
   -2.5405   -2.5580    0.0646 C   0  0  0  0  0  0  0  0  0  0  0  0
   -0.3193   -3.4524    0.3416 C   0  0  0  0  0  0  0  0  0  0  0  0
   -1.5995   -3.5498   -0.1979 C   0  0  0  0  0  0  0  0  0  0  0  0
   -0.9256   -0.4348    3.3093 H   0  0  0  0  0  0  0  0  0  0  0  0
    0.3353    2.4355   -1.3046 H   0  0  0  0  0  0  0  0  0  0  0  0
    9.7529    1.2590   -5.5160 H   0  0  0  0  0  0  0  0  0  0  0  0
    3.0993    3.6410   -0.5001 H   0  0  0  0  0  0  0  0  0  0  0  0
    1.9432   -0.1874   -2.1191 H   0  0  0  0  0  0  0  0  0  0  0  0
    5.3153    3.4035   -1.5534 H   0  0  0  0  0  0  0  0  0  0  0  0
    4.1365   -0.4205   -3.1577 H   0  0  0  0  0  0  0  0  0  0  0  0
    5.5900    0.8343   -4.8881 H   0  0  0  0  0  0  0  0  0  0  0  0
    6.2822   -0.4122   -3.8028 H   0  0  0  0  0  0  0  0  0  0  0  0
   -2.9601   -0.7104    1.0649 H   0  0  0  0  0  0  0  0  0  0  0  0
    1.0262   -2.3234    1.5662 H   0  0  0  0  0  0  0  0  0  0  0  0
   -3.5443   -2.6392   -0.3460 H   0  0  0  0  0  0  0  0  0  0  0  0
    0.4117   -4.2339    0.1476 H   0  0  0  0  0  0  0  0  0  0  0  0
   -1.8671   -4.4042   -0.8145 H   0  0  0  0  0  0  0  0  0  0  0  0
  2  1  1  0  0  0  0
  3  1  1  0  0  0  0
  4  3  1  0  0  0  0
  5  2  1  0  0  0  0
  5  6  1  0  0  0  0
  6  4  1  0  0  0  0
  6 12  1  0  0  0  0
  6 26  1  0  0  0  0
  7  1  2  0  0  0  0
  7 13  1  0  0  0  0
  7 27  1  0  0  0  0
  8 19  1  0  0  0  0
  9  8  3  0  0  0  0
  9 28  1  0  0  0  0
 10  2  2  0  0  0  0
 11  3  2  0  0  0  0
 14 18  1  0  0  0  0
 15 13  2  0  0  0  0
 15 29  1  0  0  0  0
 16 13  1  0  0  0  0
 16 30  1  0  0  0  0
 17 15  1  0  0  0  0
 17 14  2  0  0  0  0
 17 31  1  0  0  0  0
 18 16  2  0  0  0  0
 18 32  1  0  0  0  0
 19 20  1  0  0  0  0
 19 33  1  0  0  0  0
 19 34  1  0  0  0  0
 20 14  1  0  0  0  0
 21 12  1  0  0  0  0
 21 35  1  0  0  0  0
 22 12  2  0  0  0  0
 22 36  1  0  0  0  0
 23 21  2  0  0  0  0
 23 25  1  0  0  0  0
 23 37  1  0  0  0  0
 24 22  1  0  0  0  0
 24 38  1  0  0  0  0
 25 24  2  0  0  0  0
 25 39  1  0  0  0  0
M  END
>  <Mol Weight>
334.3222

>  <Click ID>
CLK010_A10

>  <Plant Activity>
0

>  <Yeast Activity>
1

$$$$

 OpenBabel11211206013D

 58 59  0  0  1  0  0  0  0  0999 V2000
    6.2479    0.3996   -2.6127 C   0  0  0  0  0  0  0  0  0  0  0  0
    0.6101   -4.2151   -2.0736 C   0  0  0  0  0  0  0  0  0  0  0  0
    3.8958   -0.1446   -2.9790 N   0  3  0  0  0  0  0  0  0  0  0  0
    3.0340   -3.8441   -1.6522 N   0  3  0  0  0  0  0  0  0  0  0  0
    7.1183    0.4824   -1.7850 C   0  0  0  0  0  0  0  0  0  0  0  0
   -0.3058   -4.0592   -2.8365 C   0  0  0  0  0  0  0  0  0  0  0  0
    2.6471    0.3931   -3.6801 C   0  0  0  0  0  0  0  0  0  0  0  0
    4.2236   -4.0664   -0.7007 C   0  0  0  0  0  0  0  0  0  0  0  0
    3.9658   -1.6859   -2.8356 C   0  0  0  0  0  0  0  0  0  0  0  0
    2.8204   -2.3576   -2.0121 C   0  0  0  0  0  0  0  0  0  0  0  0
    5.2145    0.3592   -3.6597 C   0  0  3  0  0  0  0  0  0  0  0  0
    1.7079   -4.5035   -1.1275 C   0  0  3  0  0  0  0  0  0  0  0  0
    1.3446    0.1411   -2.9669 C   0  0  0  0  0  0  0  0  0  0  0  0
    4.1058   -3.4446    0.6683 C   0  0  0  0  0  0  0  0  0  0  0  0
    2.8258   -6.5494   -0.2158 O   0  0  0  0  0  0  0  0  0  0  0  0
    4.2774    1.6816   -5.4947 O   0  0  0  0  0  0  0  0  0  0  0  0
    5.1232    1.7488   -4.3472 C   0  0  0  0  0  0  0  0  0  0  0  0
    1.7805   -6.0608   -1.0364 C   0  0  0  0  0  0  0  0  0  0  0  0
    1.1631    0.4783   -1.6147 C   0  0  0  0  0  0  0  0  0  0  0  0
    3.5880   -4.1793    1.7469 C   0  0  0  0  0  0  0  0  0  0  0  0
    0.2584   -0.3863   -3.6844 C   0  0  0  0  0  0  0  0  0  0  0  0
    4.5128   -2.1213    0.9056 C   0  0  0  0  0  0  0  0  0  0  0  0
    4.3470   -1.5386    2.1649 C   0  0  0  0  0  0  0  0  0  0  0  0
    3.4244   -3.5973    3.0042 C   0  0  0  0  0  0  0  0  0  0  0  0
   -0.0509    0.2122   -0.9789 C   0  0  0  0  0  0  0  0  0  0  0  0
   -0.9584   -0.6303   -3.0486 C   0  0  0  0  0  0  0  0  0  0  0  0
   -1.1062   -0.3494   -1.6934 C   0  0  0  0  0  0  0  0  0  0  0  0
    3.7920   -2.2731    3.2087 C   0  0  0  0  0  0  0  0  0  0  0  0
    3.9001    0.2938   -2.0508 H   0  0  0  0  0  0  0  0  0  0  0  0
    3.2447   -4.3805   -2.5020 H   0  0  0  0  0  0  0  0  0  0  0  0
    7.9201    0.5994   -1.0888 H   0  0  0  0  0  0  0  0  0  0  0  0
   -1.1404   -3.9521   -3.4952 H   0  0  0  0  0  0  0  0  0  0  0  0
    2.6441   -0.0435   -4.6841 H   0  0  0  0  0  0  0  0  0  0  0  0
    2.7341    1.4812   -3.7288 H   0  0  0  0  0  0  0  0  0  0  0  0
    5.0995   -3.6528   -1.2121 H   0  0  0  0  0  0  0  0  0  0  0  0
    4.4410   -5.1338   -0.6581 H   0  0  0  0  0  0  0  0  0  0  0  0
    4.9277   -1.8887   -2.3614 H   0  0  0  0  0  0  0  0  0  0  0  0
    3.9855   -2.0952   -3.8518 H   0  0  0  0  0  0  0  0  0  0  0  0
    1.9400   -2.3343   -2.6470 H   0  0  0  0  0  0  0  0  0  0  0  0
    2.6194   -1.8292   -1.0784 H   0  0  0  0  0  0  0  0  0  0  0  0
    5.4498   -0.3879   -4.4268 H   0  0  0  0  0  0  0  0  0  0  0  0
    1.5096   -4.0556   -0.1494 H   0  0  0  0  0  0  0  0  0  0  0  0
    2.6435   -7.4958   -0.0378 H   0  0  0  0  0  0  0  0  0  0  0  0
    4.4072    2.5079   -6.0065 H   0  0  0  0  0  0  0  0  0  0  0  0
    6.1164    2.0605   -4.6916 H   0  0  0  0  0  0  0  0  0  0  0  0
    4.7466    2.5183   -3.6643 H   0  0  0  0  0  0  0  0  0  0  0  0
    1.9016   -6.5029   -2.0315 H   0  0  0  0  0  0  0  0  0  0  0  0
    0.8347   -6.4323   -0.6214 H   0  0  0  0  0  0  0  0  0  0  0  0
    1.9429    0.9667   -1.0343 H   0  0  0  0  0  0  0  0  0  0  0  0
    3.3199   -5.2280    1.6464 H   0  0  0  0  0  0  0  0  0  0  0  0
    0.3344   -0.5978   -4.7510 H   0  0  0  0  0  0  0  0  0  0  0  0
    4.9902   -1.5281    0.1327 H   0  0  0  0  0  0  0  0  0  0  0  0
    4.6684   -0.5155    2.3499 H   0  0  0  0  0  0  0  0  0  0  0  0
    3.0247   -4.1844    3.8303 H   0  0  0  0  0  0  0  0  0  0  0  0
   -0.1935    0.4717    0.0695 H   0  0  0  0  0  0  0  0  0  0  0  0
   -1.8022   -1.0247   -3.6130 H   0  0  0  0  0  0  0  0  0  0  0  0
   -2.0610   -0.5327   -1.2023 H   0  0  0  0  0  0  0  0  0  0  0  0
    3.6711   -1.8253    4.1937 H   0  0  0  0  0  0  0  0  0  0  0  0
  2 12  1  0  0  0  0
  3 11  1  0  0  0  0
  3 29  1  0  0  0  0
  4 10  1  0  0  0  0
  4 30  1  0  0  0  0
  5  1  3  0  0  0  0
  5 31  1  0  0  0  0
  6  2  3  0  0  0  0
  6 32  1  0  0  0  0
  7  3  1  0  0  0  0
  7 13  1  0  0  0  0
  7 33  1  0  0  0  0
  7 34  1  0  0  0  0
  8  4  1  0  0  0  0
  8 14  1  0  0  0  0
  8 35  1  0  0  0  0
  8 36  1  0  0  0  0
  9  3  1  0  0  0  0
  9 37  1  0  0  0  0
  9 38  1  0  0  0  0
 10  9  1  0  0  0  0
 10 39  1  0  0  0  0
 10 40  1  0  0  0  0
 11  1  1  0  0  0  0
 11 41  1  0  0  0  0
 12  4  1  0  0  0  0
 12 42  1  0  0  0  0
 15 18  1  0  0  0  0
 15 43  1  0  0  0  0
 16 17  1  0  0  0  0
 16 44  1  0  0  0  0
 17 11  1  0  0  0  0
 17 45  1  0  0  0  0
 17 46  1  0  0  0  0
 18 12  1  0  0  0  0
 18 47  1  0  0  0  0
 18 48  1  0  0  0  0
 19 13  1  0  0  0  0
 19 49  1  0  0  0  0
 20 14  2  0  0  0  0
 20 50  1  0  0  0  0
 21 13  2  0  0  0  0
 21 51  1  0  0  0  0
 22 14  1  0  0  0  0
 22 52  1  0  0  0  0
 23 22  2  0  0  0  0
 23 53  1  0  0  0  0
 24 20  1  0  0  0  0
 24 54  1  0  0  0  0
 25 19  2  0  0  0  0
 25 27  1  0  0  0  0
 25 55  1  0  0  0  0
 26 21  1  0  0  0  0
 26 56  1  0  0  0  0
 27 26  2  0  0  0  0
 27 57  1  0  0  0  0
 28 23  1  0  0  0  0
 28 24  2  0  0  0  0
 28 58  1  0  0  0  0
M  CHG  2   3   1   4   1
M  END
>  <Mol Weight>
376.4913

>  <Click ID>
CLK009_A03

>  <Plant Activity>
0

>  <Yeast Activity>
1

$$$$

 OpenBabel11211206013D

 34 36  0  0  0  0  0  0  0  0999 V2000
    2.0845    5.3512    2.1219 C   0  0  0  0  0  0  0  0  0  0  0  0
    1.7265    4.0816    2.1992 N   0  0  0  0  0  0  0  0  0  0  0  0
    1.1373    6.1511    2.7406 N   0  0  0  0  0  0  0  0  0  0  0  0
    0.1169    5.3388    3.1966 C   0  0  0  0  0  0  0  0  0  0  0  0
    0.5205    4.0563    2.8469 C   0  0  0  0  0  0  0  0  0  0  0  0
    3.2461    5.9070    1.5170 C   0  0  0  0  0  0  0  0  0  0  0  0
    0.6167    8.3277    1.7948 C   0  0  0  0  0  0  0  0  0  0  0  0
    0.1438    8.9233    0.8658 C   0  0  0  0  0  0  0  0  0  0  0  0
    4.1734    5.0988    0.9758 C   0  0  0  0  0  0  0  0  0  0  0  0
    1.1825    7.5930    2.9345 C   0  0  0  0  0  0  0  0  0  0  0  0
    5.4207    5.5604    0.3466 C   0  0  0  0  0  0  0  0  0  0  0  0
    7.8356    6.3374   -0.8558 C   0  0  0  0  0  0  0  0  0  0  0  0
    9.3178    6.8203   -1.5831 Cl  0  0  0  0  0  0  0  0  0  0  0  0
    5.5217    6.7858   -0.3280 C   0  0  0  0  0  0  0  0  0  0  0  0
    6.5427    4.7195    0.3839 C   0  0  0  0  0  0  0  0  0  0  0  0
    6.7269    7.1771   -0.9204 C   0  0  0  0  0  0  0  0  0  0  0  0
    7.7479    5.1073   -0.2104 C   0  0  0  0  0  0  0  0  0  0  0  0
   -1.0896    5.5931    3.8634 C   0  0  0  0  0  0  0  0  0  0  0  0
   -0.2937    2.9613    3.1723 C   0  0  0  0  0  0  0  0  0  0  0  0
   -1.8902    4.4893    4.1795 C   0  0  0  0  0  0  0  0  0  0  0  0
   -1.5009    3.1927    3.8420 C   0  0  0  0  0  0  0  0  0  0  0  0
    3.3891    6.9800    1.4974 H   0  0  0  0  0  0  0  0  0  0  0  0
   -0.2859    9.4425    0.0392 H   0  0  0  0  0  0  0  0  0  0  0  0
    4.0342    4.0181    1.0119 H   0  0  0  0  0  0  0  0  0  0  0  0
    2.2202    7.8837    3.1252 H   0  0  0  0  0  0  0  0  0  0  0  0
    0.6322    7.8269    3.8523 H   0  0  0  0  0  0  0  0  0  0  0  0
    4.6639    7.4480   -0.4139 H   0  0  0  0  0  0  0  0  0  0  0  0
    6.4910    3.7545    0.8850 H   0  0  0  0  0  0  0  0  0  0  0  0
    6.7891    8.1327   -1.4339 H   0  0  0  0  0  0  0  0  0  0  0  0
    8.6083    4.4452   -0.1652 H   0  0  0  0  0  0  0  0  0  0  0  0
   -1.4055    6.5973    4.1242 H   0  0  0  0  0  0  0  0  0  0  0  0
    0.0150    1.9576    2.9025 H   0  0  0  0  0  0  0  0  0  0  0  0
   -2.8350    4.6463    4.6961 H   0  0  0  0  0  0  0  0  0  0  0  0
   -2.1409    2.3517    4.0974 H   0  0  0  0  0  0  0  0  0  0  0  0
  2  1  2  0  0  0  0
  3  1  1  0  0  0  0
  4  3  1  0  0  0  0
  5  2  1  0  0  0  0
  5  4  1  0  0  0  0
  6  1  1  0  0  0  0
  6 22  1  0  0  0  0
  7 10  1  0  0  0  0
  8  7  3  0  0  0  0
  8 23  1  0  0  0  0
  9  6  2  0  0  0  0
  9 11  1  0  0  0  0
  9 24  1  0  0  0  0
 10  3  1  0  0  0  0
 10 25  1  0  0  0  0
 10 26  1  0  0  0  0
 12 17  2  0  0  0  0
 12 16  1  0  0  0  0
 13 12  1  0  0  0  0
 14 11  1  0  0  0  0
 14 27  1  0  0  0  0
 15 11  2  0  0  0  0
 15 28  1  0  0  0  0
 16 14  2  0  0  0  0
 16 29  1  0  0  0  0
 17 15  1  0  0  0  0
 17 30  1  0  0  0  0
 18  4  2  0  0  0  0
 18 31  1  0  0  0  0
 19  5  2  0  0  0  0
 19 32  1  0  0  0  0
 20 18  1  0  0  0  0
 20 33  1  0  0  0  0
 21 20  2  0  0  0  0
 21 19  1  0  0  0  0
 21 34  1  0  0  0  0
M  END
>  <Mol Weight>
292.762

>  <Click ID>
CLK006_F04

>  <Plant Activity>
0

>  <Yeast Activity>
1

$$$$

 OpenBabel11211206013D

 43 45  0  0  0  0  0  0  0  0999 V2000
   -2.9878    0.3682    1.4470 C   0  0  0  0  0  0  0  0  0  0  0  0
   -4.2183    0.3360    0.7270 C   0  0  0  0  0  0  0  0  0  0  0  0
   -2.5641    1.5266    2.0616 N   0  0  0  0  0  0  0  0  0  0  0  0
   -2.1448   -0.6130    1.7149 N   0  0  0  0  0  0  0  0  0  0  0  0
   -4.6243    1.3073   -0.1205 C   0  0  0  0  0  0  0  0  0  0  0  0
   -5.0555   -0.8203    0.8734 C   0  0  0  0  0  0  0  0  0  0  0  0
   -1.3629    1.2918    2.6759 C   0  0  0  0  0  0  0  0  0  0  0  0
   -1.1295   -0.0578    2.4561 C   0  0  0  0  0  0  0  0  0  0  0  0
   -3.9087    2.5361   -0.4782 C   0  0  0  0  0  0  0  0  0  0  0  0
   -5.7871   -1.7138    0.9684 N   0  0  0  0  0  0  0  0  0  0  0  0
   -0.4941    2.1211    3.3868 C   0  0  0  0  0  0  0  0  0  0  0  0
    0.0311   -0.6438    2.9798 C   0  0  0  0  0  0  0  0  0  0  0  0
   -4.2072    3.7336    0.1788 C   0  0  0  0  0  0  0  0  0  0  0  0
   -2.9084    2.5190   -1.4523 C   0  0  0  0  0  0  0  0  0  0  0  0
    0.6654    1.5227    3.8920 C   0  0  0  0  0  0  0  0  0  0  0  0
    0.9248    0.1633    3.6971 C   0  0  0  0  0  0  0  0  0  0  0  0
   -3.4884    4.8983   -0.1121 C   0  0  0  0  0  0  0  0  0  0  0  0
   -2.1905    3.6846   -1.7387 C   0  0  0  0  0  0  0  0  0  0  0  0
   -2.4447    4.8718   -1.0439 C   0  0  0  0  0  0  0  0  0  0  0  0
   -3.8199    6.0118    0.6126 O   0  0  0  0  0  0  0  0  0  0  0  0
   -1.6358    5.9201   -1.3918 O   0  0  0  0  0  0  0  0  0  0  0  0
   -4.6214    6.9264   -0.1495 C   0  0  0  0  0  0  0  0  0  0  0  0
   -1.2490    6.7860   -0.3222 C   0  0  0  0  0  0  0  0  0  0  0  0
   -6.0942    6.7054    0.1414 C   0  0  0  0  0  0  0  0  0  0  0  0
    0.0346    7.4240   -0.6526 C   0  0  0  0  0  0  0  0  0  0  0  0
    1.0775    7.9660   -0.9012 C   0  0  0  0  0  0  0  0  0  0  0  0
   -3.0428    2.4132    2.0557 H   0  0  0  0  0  0  0  0  0  0  0  0
   -5.5733    1.1946   -0.6473 H   0  0  0  0  0  0  0  0  0  0  0  0
   -0.6974    3.1754    3.5390 H   0  0  0  0  0  0  0  0  0  0  0  0
    0.2270   -1.6988    2.8246 H   0  0  0  0  0  0  0  0  0  0  0  0
   -4.9937    3.7705    0.9294 H   0  0  0  0  0  0  0  0  0  0  0  0
   -2.6671    1.6021   -1.9875 H   0  0  0  0  0  0  0  0  0  0  0  0
    1.3783    2.1281    4.4486 H   0  0  0  0  0  0  0  0  0  0  0  0
    1.8323   -0.2762    4.1044 H   0  0  0  0  0  0  0  0  0  0  0  0
   -1.4047    3.6586   -2.4911 H   0  0  0  0  0  0  0  0  0  0  0  0
   -4.4184    6.8736   -1.2262 H   0  0  0  0  0  0  0  0  0  0  0  0
   -4.3452    7.9335    0.1820 H   0  0  0  0  0  0  0  0  0  0  0  0
   -1.1433    6.2408    0.6233 H   0  0  0  0  0  0  0  0  0  0  0  0
   -1.9977    7.5753   -0.2121 H   0  0  0  0  0  0  0  0  0  0  0  0
   -6.4251    5.7327   -0.2348 H   0  0  0  0  0  0  0  0  0  0  0  0
   -6.7003    7.4832   -0.3313 H   0  0  0  0  0  0  0  0  0  0  0  0
   -6.2815    6.7147    1.2201 H   0  0  0  0  0  0  0  0  0  0  0  0
    2.0008    8.4525   -1.1162 H   0  0  0  0  0  0  0  0  0  0  0  0
  1  4  2  0  0  0  0
  1  3  1  0  0  0  0
  1  2  1  0  0  0  0
  2  6  1  0  0  0  0
  2  5  2  0  0  0  0
  3  7  1  0  0  0  0
  3 27  1  0  0  0  0
  4  8  1  0  0  0  0
  5  9  1  0  0  0  0
  5 28  1  0  0  0  0
  6 10  3  0  0  0  0
  7  8  2  0  0  0  0
  7 11  1  0  0  0  0
  8 12  1  0  0  0  0
  9 13  2  0  0  0  0
  9 14  1  0  0  0  0
 11 15  2  0  0  0  0
 11 29  1  0  0  0  0
 12 16  2  0  0  0  0
 12 30  1  0  0  0  0
 13 17  1  0  0  0  0
 13 31  1  0  0  0  0
 14 18  2  0  0  0  0
 14 32  1  0  0  0  0
 15 16  1  0  0  0  0
 15 33  1  0  0  0  0
 16 34  1  0  0  0  0
 17 19  2  0  0  0  0
 17 20  1  0  0  0  0
 18 19  1  0  0  0  0
 18 35  1  0  0  0  0
 19 21  1  0  0  0  0
 20 22  1  0  0  0  0
 21 23  1  0  0  0  0
 22 24  1  0  0  0  0
 22 36  1  0  0  0  0
 22 37  1  0  0  0  0
 23 25  1  0  0  0  0
 23 38  1  0  0  0  0
 23 39  1  0  0  0  0
 24 40  1  0  0  0  0
 24 41  1  0  0  0  0
 24 42  1  0  0  0  0
 25 26  3  0  0  0  0
 26 43  1  0  0  0  0
M  END
>  <Mol Weight>
343.3786

>  <Click ID>
CLK005_C07

>  <Plant Activity>
1

>  <Yeast Activity>
1

>  <Bioactivity Commet>
is overlap coincidence?

>  <Plant Comment>
stain root

>  <Yeast Comment>
very strong

>  <Strength>
strong

$$$$

 OpenBabel11211206013D

 37 38  0  0  0  0  0  0  0  0999 V2000
    0.9479   -1.2630   -0.2165 C   0  0  0  0  0  0  0  0  0  0  0  0
    0.2446   -2.2731    0.3324 C   0  0  0  0  0  0  0  0  0  0  0  0
    0.3747   -0.0111   -0.4737 N   0  0  0  0  0  0  0  0  0  0  0  0
   -0.8200    0.5121   -0.0162 C   0  0  0  0  0  0  0  0  0  0  0  0
    2.4227   -1.2480   -0.6236 C   0  0  0  0  0  0  0  0  0  0  0  0
    0.7537   -3.5235    0.7387 C   0  0  0  0  0  0  0  0  0  0  0  0
    5.1538   -3.4848   -0.8743 C   0  0  0  0  0  0  0  0  0  0  0  0
    0.9060   -3.7251    2.0907 N   0  0  0  0  0  0  0  0  0  0  0  0
    5.5494   -4.5460   -1.2795 C   0  0  0  0  0  0  0  0  0  0  0  0
   -1.6350   -0.0955    0.6728 O   0  0  0  0  0  0  0  0  0  0  0  0
    1.4750   -4.9524    2.3073 C   0  0  0  0  0  0  0  0  0  0  0  0
   -1.0879    1.9556   -0.3203 C   0  0  0  0  0  0  0  0  0  0  0  0
    1.1349   -4.6829    0.0962 C   0  0  0  0  0  0  0  0  0  0  0  0
    2.8169   -0.2883   -1.2941 O   0  0  0  0  0  0  0  0  0  0  0  0
    1.6119   -5.5769    1.0878 C   0  0  0  0  0  0  0  0  0  0  0  0
    3.2658   -2.2158   -0.1679 N   0  0  0  0  0  0  0  0  0  0  0  0
    4.6887   -2.1814   -0.3930 C   0  0  0  0  0  0  0  0  0  0  0  0
   -0.3847    2.6937   -1.2823 C   0  0  0  0  0  0  0  0  0  0  0  0
   -2.0935    2.5966    0.4229 C   0  0  0  0  0  0  0  0  0  0  0  0
   -2.3749    3.9501    0.2291 C   0  0  0  0  0  0  0  0  0  0  0  0
   -0.6659    4.0522   -1.4697 C   0  0  0  0  0  0  0  0  0  0  0  0
   -1.6550    4.6791   -0.7128 C   0  0  0  0  0  0  0  0  0  0  0  0
   -0.8142   -2.1445    0.5368 H   0  0  0  0  0  0  0  0  0  0  0  0
    1.0373    0.6142   -0.9280 H   0  0  0  0  0  0  0  0  0  0  0  0
    0.6674   -3.0535    2.8107 H   0  0  0  0  0  0  0  0  0  0  0  0
    5.9049   -5.4797   -1.6476 H   0  0  0  0  0  0  0  0  0  0  0  0
    1.7138   -5.2801    3.3105 H   0  0  0  0  0  0  0  0  0  0  0  0
    1.1011   -4.8596   -0.9718 H   0  0  0  0  0  0  0  0  0  0  0  0
    2.0113   -6.5704    0.9292 H   0  0  0  0  0  0  0  0  0  0  0  0
    2.9289   -2.9457    0.4393 H   0  0  0  0  0  0  0  0  0  0  0  0
    5.1542   -1.9487    0.5707 H   0  0  0  0  0  0  0  0  0  0  0  0
    4.9591   -1.3886   -1.0965 H   0  0  0  0  0  0  0  0  0  0  0  0
    0.3779    2.2450   -1.9108 H   0  0  0  0  0  0  0  0  0  0  0  0
   -2.6616    2.0419    1.1683 H   0  0  0  0  0  0  0  0  0  0  0  0
   -3.1527    4.4314    0.8167 H   0  0  0  0  0  0  0  0  0  0  0  0
   -0.1116    4.6236   -2.2110 H   0  0  0  0  0  0  0  0  0  0  0  0
   -1.8683    5.7350   -0.8605 H   0  0  0  0  0  0  0  0  0  0  0  0
  2  1  2  0  0  0  0
  2  6  1  0  0  0  0
  2 23  1  0  0  0  0
  3  1  1  0  0  0  0
  3 24  1  0  0  0  0
  4  3  1  0  0  0  0
  4 12  1  0  0  0  0
  5  1  1  0  0  0  0
  7 17  1  0  0  0  0
  8  6  1  0  0  0  0
  8 25  1  0  0  0  0
  9  7  3  0  0  0  0
  9 26  1  0  0  0  0
 10  4  2  0  0  0  0
 11  8  1  0  0  0  0
 11 15  2  0  0  0  0
 11 27  1  0  0  0  0
 13  6  2  0  0  0  0
 13 28  1  0  0  0  0
 14  5  2  0  0  0  0
 15 13  1  0  0  0  0
 15 29  1  0  0  0  0
 16  5  1  0  0  0  0
 16 30  1  0  0  0  0
 17 16  1  0  0  0  0
 17 31  1  0  0  0  0
 17 32  1  0  0  0  0
 18 12  2  0  0  0  0
 18 33  1  0  0  0  0
 19 12  1  0  0  0  0
 19 34  1  0  0  0  0
 20 19  2  0  0  0  0
 20 35  1  0  0  0  0
 21 18  1  0  0  0  0
 21 22  2  0  0  0  0
 21 36  1  0  0  0  0
 22 20  1  0  0  0  0
 22 37  1  0  0  0  0
M  END
>  <Mol Weight>
293.3199

>  <Click ID>
CLK004_H03

>  <Plant Activity>
0

>  <Yeast Activity>
1

$$$$

 OpenBabel11211206013D

 44 46  0  0  1  0  0  0  0  0999 V2000
   -0.2569   -0.0990    2.3947 C   0  0  3  0  0  0  0  0  0  0  0  0
    1.1911   -0.1654    2.8235 C   0  0  0  0  0  0  0  0  0  0  0  0
   -0.6471   -1.6151    2.4826 C   0  0  0  0  0  0  0  0  0  0  0  0
   -0.3017    0.4630    0.9736 C   0  0  0  0  0  0  0  0  0  0  0  0
   -0.9580    0.7552    3.2859 O   0  0  0  0  0  0  0  0  0  0  0  0
    1.6240   -1.4935    2.8172 C   0  0  0  0  0  0  0  0  0  0  0  0
    2.0431    0.8676    3.1881 C   0  0  0  0  0  0  0  0  0  0  0  0
    0.5518   -2.3525    2.4980 N   0  0  0  0  0  0  0  0  0  0  0  0
   -1.7825   -2.0256    2.6637 O   0  0  0  0  0  0  0  0  0  0  0  0
   -1.6576    0.3397    0.3160 C   0  0  0  0  0  0  0  0  0  0  0  0
    2.9214   -1.8232    3.1723 C   0  0  0  0  0  0  0  0  0  0  0  0
    3.3503    0.5458    3.5539 C   0  0  0  0  0  0  0  0  0  0  0  0
    0.6609   -3.7916    2.6738 C   0  0  0  0  0  0  0  0  0  0  0  0
   -2.4592    1.5665    0.0267 C   0  0  0  0  0  0  0  0  0  0  0  0
   -2.0538   -0.7471   -0.1036 O   0  0  0  0  0  0  0  0  0  0  0  0
    3.7871   -0.7884    3.5439 C   0  0  0  0  0  0  0  0  0  0  0  0
   -0.4681   -4.5659    2.1415 C   0  0  0  0  0  0  0  0  0  0  0  0
   -2.3393    2.7443    0.7694 C   0  0  0  0  0  0  0  0  0  0  0  0
   -3.3452    1.5299   -1.0581 C   0  0  0  0  0  0  0  0  0  0  0  0
   -1.4081   -5.2039    1.7614 C   0  0  0  0  0  0  0  0  0  0  0  0
   -3.0753    3.8802    0.4081 C   0  0  0  0  0  0  0  0  0  0  0  0
   -4.0744    2.6657   -1.4204 C   0  0  0  0  0  0  0  0  0  0  0  0
   -3.9382    3.8567   -0.6976 C   0  0  0  0  0  0  0  0  0  0  0  0
   -4.7266    5.0822   -1.0954 C   0  0  0  0  0  0  0  0  0  0  0  0
   -3.8443    6.2189   -1.5930 C   0  0  0  0  0  0  0  0  0  0  0  0
    0.3958   -0.0713    0.3131 H   0  0  0  0  0  0  0  0  0  0  0  0
    0.0284    1.5077    0.9556 H   0  0  0  0  0  0  0  0  0  0  0  0
   -1.3333    0.1727    3.9749 H   0  0  0  0  0  0  0  0  0  0  0  0
    1.6976    1.8967    3.2045 H   0  0  0  0  0  0  0  0  0  0  0  0
    3.2740   -2.8488    3.1912 H   0  0  0  0  0  0  0  0  0  0  0  0
    4.0364    1.3354    3.8565 H   0  0  0  0  0  0  0  0  0  0  0  0
    0.7834   -3.9948    3.7415 H   0  0  0  0  0  0  0  0  0  0  0  0
    1.5716   -4.1239    2.1571 H   0  0  0  0  0  0  0  0  0  0  0  0
    4.8070   -1.0193    3.8413 H   0  0  0  0  0  0  0  0  0  0  0  0
   -1.6935    2.7990    1.6409 H   0  0  0  0  0  0  0  0  0  0  0  0
   -3.4635    0.6157   -1.6377 H   0  0  0  0  0  0  0  0  0  0  0  0
   -2.2770   -5.7390    1.4412 H   0  0  0  0  0  0  0  0  0  0  0  0
   -2.9702    4.7884    0.9979 H   0  0  0  0  0  0  0  0  0  0  0  0
   -4.7472    2.6098   -2.2736 H   0  0  0  0  0  0  0  0  0  0  0  0
   -5.3198    5.4173   -0.2370 H   0  0  0  0  0  0  0  0  0  0  0  0
   -5.4455    4.8250   -1.8833 H   0  0  0  0  0  0  0  0  0  0  0  0
   -3.1738    6.5815   -0.8063 H   0  0  0  0  0  0  0  0  0  0  0  0
   -4.4634    7.0614   -1.9179 H   0  0  0  0  0  0  0  0  0  0  0  0
   -3.2290    5.9018   -2.4409 H   0  0  0  0  0  0  0  0  0  0  0  0
  1  3  1  0  0  0  0
  1  2  1  0  0  0  0
  1  5  1  0  0  0  0
  1  4  1  0  0  0  0
  2  6  2  0  0  0  0
  2  7  1  0  0  0  0
  3  8  1  0  0  0  0
  3  9  2  0  0  0  0
  4 10  1  0  0  0  0
  4 26  1  0  0  0  0
  4 27  1  0  0  0  0
  5 28  1  0  0  0  0
  6 11  1  0  0  0  0
  6  8  1  0  0  0  0
  7 12  2  0  0  0  0
  7 29  1  0  0  0  0
  8 13  1  0  0  0  0
 10 15  2  0  0  0  0
 10 14  1  0  0  0  0
 11 16  2  0  0  0  0
 11 30  1  0  0  0  0
 12 16  1  0  0  0  0
 12 31  1  0  0  0  0
 13 17  1  0  0  0  0
 13 32  1  0  0  0  0
 13 33  1  0  0  0  0
 14 18  2  0  0  0  0
 14 19  1  0  0  0  0
 16 34  1  0  0  0  0
 17 20  3  0  0  0  0
 18 21  1  0  0  0  0
 18 35  1  0  0  0  0
 19 22  2  0  0  0  0
 19 36  1  0  0  0  0
 20 37  1  0  0  0  0
 21 23  2  0  0  0  0
 21 38  1  0  0  0  0
 22 23  1  0  0  0  0
 22 39  1  0  0  0  0
 23 24  1  0  0  0  0
 24 25  1  0  0  0  0
 24 40  1  0  0  0  0
 24 41  1  0  0  0  0
 25 42  1  0  0  0  0
 25 43  1  0  0  0  0
 25 44  1  0  0  0  0
M  END
>  <Mol Weight>
333.3805

>  <Click ID>
CLK004_D06

>  <Plant Activity>
0

>  <Yeast Activity>
1

$$$$

 OpenBabel11211206013D

 32 33  0  0  0  0  0  0  0  0999 V2000
    2.2317    0.9631    1.2169 N   0  0  0  0  0  0  0  0  0  0  0  0
    2.3852   -0.3404    1.1944 C   0  0  0  0  0  0  0  0  0  0  0  0
    1.7040   -6.6136   -1.4681 C   0  0  0  0  0  0  0  0  0  0  0  0
    3.2732    1.5016    1.9623 C   0  0  0  0  0  0  0  0  0  0  0  0
    2.9252   -7.4862   -1.3266 C   0  0  0  0  0  0  0  0  0  0  0  0
    1.5430   -1.1808    0.5085 N   0  0  0  0  0  0  0  0  0  0  0  0
    4.1544    0.6929    2.5517 N   0  0  0  0  0  0  0  0  0  0  0  0
    1.8113   -2.5038    0.2276 C   0  0  0  0  0  0  0  0  0  0  0  0
    3.7122   -0.8595    2.1368 S   0  0  0  0  0  0  0  0  0  0  0  0
    5.6523    4.7842    2.3546 C   0  0  0  0  0  0  0  0  0  0  0  0
    0.7663   -3.0924   -0.4695 N   0  0  0  0  0  0  0  0  0  0  0  0
    6.0220    5.9288    2.3930 C   0  0  0  0  0  0  0  0  0  0  0  0
    0.5117   -6.9975   -2.0831 C   0  0  0  0  0  0  0  0  0  0  0  0
    1.7898   -5.3070   -0.9296 C   0  0  0  0  0  0  0  0  0  0  0  0
    0.7233   -4.4054   -0.9887 C   0  0  0  0  0  0  0  0  0  0  0  0
    2.8421   -3.0823    0.5442 O   0  0  0  0  0  0  0  0  0  0  0  0
    3.4215    3.2425    2.1151 S   0  0  0  0  0  0  0  0  0  0  0  0
    4.0179   -6.9257   -1.9221 F   0  0  0  0  0  0  0  0  0  0  0  0
    3.2737   -7.6592   -0.0186 F   0  0  0  0  0  0  0  0  0  0  0  0
    2.8379   -8.7390   -1.8432 F   0  0  0  0  0  0  0  0  0  0  0  0
   -0.5608   -6.1000   -2.1518 C   0  0  0  0  0  0  0  0  0  0  0  0
   -0.4570   -4.8158   -1.6089 C   0  0  0  0  0  0  0  0  0  0  0  0
    0.2626   -8.5500   -2.7894 Cl  0  0  0  0  0  0  0  0  0  0  0  0
    5.2212    3.3817    2.3126 C   0  0  0  0  0  0  0  0  0  0  0  0
    0.8090   -0.7004    0.0136 H   0  0  0  0  0  0  0  0  0  0  0  0
   -0.0803   -2.5497   -0.5593 H   0  0  0  0  0  0  0  0  0  0  0  0
    6.3483    6.9413    2.4290 H   0  0  0  0  0  0  0  0  0  0  0  0
    2.7327   -5.0285   -0.4627 H   0  0  0  0  0  0  0  0  0  0  0  0
   -1.4911   -6.3977   -2.6325 H   0  0  0  0  0  0  0  0  0  0  0  0
   -1.3137   -4.1508   -1.6841 H   0  0  0  0  0  0  0  0  0  0  0  0
    5.7144    2.8770    1.4744 H   0  0  0  0  0  0  0  0  0  0  0  0
    5.5293    2.8836    3.2380 H   0  0  0  0  0  0  0  0  0  0  0  0
  2  1  2  0  0  0  0
  3 14  1  0  0  0  0
  3 13  2  0  0  0  0
  4  1  1  0  0  0  0
  5  3  1  0  0  0  0
  6  2  1  0  0  0  0
  6 25  1  0  0  0  0
  7  4  2  0  0  0  0
  8  6  1  0  0  0  0
  9  2  1  0  0  0  0
  9  7  1  0  0  0  0
 10 24  1  0  0  0  0
 11  8  1  0  0  0  0
 11 15  1  0  0  0  0
 11 26  1  0  0  0  0
 12 10  3  0  0  0  0
 12 27  1  0  0  0  0
 13 21  1  0  0  0  0
 14 15  2  0  0  0  0
 14 28  1  0  0  0  0
 16  8  2  0  0  0  0
 17  4  1  0  0  0  0
 18  5  1  0  0  0  0
 19  5  1  0  0  0  0
 20  5  1  0  0  0  0
 21 22  2  0  0  0  0
 21 29  1  0  0  0  0
 22 15  1  0  0  0  0
 22 30  1  0  0  0  0
 23 13  1  0  0  0  0
 24 17  1  0  0  0  0
 24 31  1  0  0  0  0
 24 32  1  0  0  0  0
M  END
>  <Mol Weight>
392.807

>  <Click ID>
CLK004_D03

>  <Plant Activity>
0

>  <Yeast Activity>
1

$$$$

 OpenBabel11211206013D

 30 31  0  0  0  0  0  0  0  0999 V2000
   -1.1002   -1.9024    1.5374 N   0  0  0  0  0  0  0  0  0  0  0  0
   -1.9904   -0.8394    1.5606 C   0  0  0  0  0  0  0  0  0  0  0  0
   -0.4203   -2.5238    2.5980 C   0  0  0  0  0  0  0  0  0  0  0  0
   -1.0118   -2.1944    0.1901 C   0  0  0  0  0  0  0  0  0  0  0  0
   -2.3866   -0.5460    0.3409 N   0  0  0  0  0  0  0  0  0  0  0  0
   -2.5299    0.0092    2.9712 S   0  0  0  0  0  0  0  0  0  0  0  0
    0.4635   -3.6640    2.2375 C   0  0  0  0  0  0  0  0  0  0  0  0
   -0.5518   -2.1286    3.7482 O   0  0  0  0  0  0  0  0  0  0  0  0
   -1.7715   -1.4000   -0.5237 N   0  0  0  0  0  0  0  0  0  0  0  0
   -3.6375    1.2335    2.2077 C   0  0  0  0  0  0  0  0  0  0  0  0
    1.4187   -4.0740    3.0881 C   0  0  0  0  0  0  0  0  0  0  0  0
   -4.2329    2.1185    3.2154 C   0  0  0  0  0  0  0  0  0  0  0  0
    2.3264   -5.1951    2.7914 C   0  0  0  0  0  0  0  0  0  0  0  0
   -4.7259    2.8513    4.0342 C   0  0  0  0  0  0  0  0  0  0  0  0
    2.8027   -5.9861    3.8446 C   0  0  0  0  0  0  0  0  0  0  0  0
    2.7619   -5.4819    1.4884 C   0  0  0  0  0  0  0  0  0  0  0  0
    3.6513   -7.0691    3.5944 C   0  0  0  0  0  0  0  0  0  0  0  0
    3.6047   -6.5675    1.2381 C   0  0  0  0  0  0  0  0  0  0  0  0
    4.0428   -7.3657    2.2906 C   0  0  0  0  0  0  0  0  0  0  0  0
   -0.3916   -2.9693   -0.2333 H   0  0  0  0  0  0  0  0  0  0  0  0
    0.3164   -4.1778    1.2992 H   0  0  0  0  0  0  0  0  0  0  0  0
   -4.4325    0.7102    1.6655 H   0  0  0  0  0  0  0  0  0  0  0  0
   -3.0716    1.8325    1.4858 H   0  0  0  0  0  0  0  0  0  0  0  0
    1.5436   -3.5950    4.0588 H   0  0  0  0  0  0  0  0  0  0  0  0
   -5.1585    3.4970    4.7604 H   0  0  0  0  0  0  0  0  0  0  0  0
    2.5080   -5.7778    4.8711 H   0  0  0  0  0  0  0  0  0  0  0  0
    2.4593   -4.8652    0.6467 H   0  0  0  0  0  0  0  0  0  0  0  0
    4.0037   -7.6843    4.4187 H   0  0  0  0  0  0  0  0  0  0  0  0
    3.9198   -6.7869    0.2210 H   0  0  0  0  0  0  0  0  0  0  0  0
    4.6944   -8.2136    2.0957 H   0  0  0  0  0  0  0  0  0  0  0  0
  1  4  1  0  0  0  0
  1  2  1  0  0  0  0
  1  3  1  0  0  0  0
  2  5  2  0  0  0  0
  2  6  1  0  0  0  0
  3  8  2  0  0  0  0
  3  7  1  0  0  0  0
  4  9  2  0  0  0  0
  4 20  1  0  0  0  0
  5  9  1  0  0  0  0
  6 10  1  0  0  0  0
  7 11  2  0  0  0  0
  7 21  1  0  0  0  0
 10 12  1  0  0  0  0
 10 22  1  0  0  0  0
 10 23  1  0  0  0  0
 11 13  1  0  0  0  0
 11 24  1  0  0  0  0
 12 14  3  0  0  0  0
 13 15  1  0  0  0  0
 13 16  2  0  0  0  0
 14 25  1  0  0  0  0
 15 17  2  0  0  0  0
 15 26  1  0  0  0  0
 16 18  1  0  0  0  0
 16 27  1  0  0  0  0
 17 19  1  0  0  0  0
 17 28  1  0  0  0  0
 18 19  2  0  0  0  0
 18 29  1  0  0  0  0
 19 30  1  0  0  0  0
M  END
>  <Mol Weight>
269.322

>  <Click ID>
CLK004_A02

>  <Plant Activity>
0

>  <Yeast Activity>
1

$$$$

 OpenBabel11211206013D

 27 28  0  0  0  0  0  0  0  0999 V2000
    0.1779   -1.9789    1.2991 N   0  0  0  0  0  0  0  0  0  0  0  0
    1.3662   -2.3981    0.7323 C   0  0  0  0  0  0  0  0  0  0  0  0
   -1.1070   -2.5239    1.3286 C   0  0  0  0  0  0  0  0  0  0  0  0
    0.5218   -0.7988    1.9224 C   0  0  0  0  0  0  0  0  0  0  0  0
    2.3507   -1.6125    1.1072 N   0  0  0  0  0  0  0  0  0  0  0  0
    1.5277   -3.6483   -0.4573 S   0  0  0  0  0  0  0  0  0  0  0  0
   -1.2151   -3.9930    1.1910 C   0  0  0  0  0  0  0  0  0  0  0  0
   -2.0537   -1.7932    1.5924 O   0  0  0  0  0  0  0  0  0  0  0  0
    1.8172   -0.6004    1.8601 N   0  0  0  0  0  0  0  0  0  0  0  0
    3.2547   -4.1429   -0.1780 C   0  0  0  0  0  0  0  0  0  0  0  0
   -2.4096   -4.5636    0.9758 C   0  0  0  0  0  0  0  0  0  0  0  0
    3.6147   -5.2830   -1.0349 C   0  0  0  0  0  0  0  0  0  0  0  0
   -2.5525   -5.9820    0.8924 C   0  0  0  0  0  0  0  0  0  0  0  0
    3.9129   -6.2088   -1.7347 C   0  0  0  0  0  0  0  0  0  0  0  0
   -1.6017   -6.9928    0.8663 C   0  0  0  0  0  0  0  0  0  0  0  0
   -4.1364   -6.6632    0.8049 S   0  0  0  0  0  0  0  0  0  0  0  0
   -2.1663   -8.2994    0.7971 C   0  0  0  0  0  0  0  0  0  0  0  0
   -3.5390   -8.2614    0.7600 C   0  0  0  0  0  0  0  0  0  0  0  0
   -0.1985   -0.1758    2.4360 H   0  0  0  0  0  0  0  0  0  0  0  0
   -0.3253   -4.5877    1.3398 H   0  0  0  0  0  0  0  0  0  0  0  0
    3.3735   -4.4251    0.8736 H   0  0  0  0  0  0  0  0  0  0  0  0
    3.9188   -3.2977   -0.3824 H   0  0  0  0  0  0  0  0  0  0  0  0
   -3.3008   -3.9442    0.8773 H   0  0  0  0  0  0  0  0  0  0  0  0
    4.1794   -7.0289   -2.3646 H   0  0  0  0  0  0  0  0  0  0  0  0
   -0.5333   -6.8188    0.8967 H   0  0  0  0  0  0  0  0  0  0  0  0
   -1.5915   -9.2173    0.7742 H   0  0  0  0  0  0  0  0  0  0  0  0
   -4.2227   -9.0974    0.7058 H   0  0  0  0  0  0  0  0  0  0  0  0
  1  4  1  0  0  0  0
  1  2  1  0  0  0  0
  1  3  1  0  0  0  0
  2  5  2  0  0  0  0
  2  6  1  0  0  0  0
  3  8  2  0  0  0  0
  3  7  1  0  0  0  0
  4  9  2  0  0  0  0
  4 19  1  0  0  0  0
  5  9  1  0  0  0  0
  6 10  1  0  0  0  0
  7 11  2  0  0  0  0
  7 20  1  0  0  0  0
 10 12  1  0  0  0  0
 10 21  1  0  0  0  0
 10 22  1  0  0  0  0
 11 13  1  0  0  0  0
 11 23  1  0  0  0  0
 12 14  3  0  0  0  0
 13 15  2  0  0  0  0
 13 16  1  0  0  0  0
 14 24  1  0  0  0  0
 15 17  1  0  0  0  0
 15 25  1  0  0  0  0
 16 18  1  0  0  0  0
 17 18  2  0  0  0  0
 17 26  1  0  0  0  0
 18 27  1  0  0  0  0
M  END
>  <Mol Weight>
275.349

>  <Click ID>
CLK003_G10

>  <Plant Activity>
0

>  <Yeast Activity>
1

$$$$

 OpenBabel11211206013D

 23 24  0  0  0  0  0  0  0  0999 V2000
   -0.3335    0.5453    0.0359 C   0  0  0  0  0  0  0  0  0  0  0  0
    0.1881    1.8586   -0.0394 C   0  0  0  0  0  0  0  0  0  0  0  0
    0.5890   -0.5194    0.0568 C   0  0  0  0  0  0  0  0  0  0  0  0
   -1.6729    0.3413    0.0793 N   0  0  0  0  0  0  0  0  0  0  0  0
    1.5737    2.0831   -0.0930 C   0  0  0  0  0  0  0  0  0  0  0  0
   -0.7059    2.9382   -0.0668 C   0  0  0  0  0  0  0  0  0  0  0  0
    1.9726   -0.2825   -0.0139 C   0  0  0  0  0  0  0  0  0  0  0  0
    0.0922   -2.2530    0.1190 S   0  0  0  0  0  0  0  0  0  0  0  0
   -2.5049    1.4044    0.0435 C   0  0  0  0  0  0  0  0  0  0  0  0
    2.4636    1.0156   -0.0827 C   0  0  0  0  0  0  0  0  0  0  0  0
   -2.0740    2.7112   -0.0267 C   0  0  0  0  0  0  0  0  0  0  0  0
   -0.8831   -2.2506    1.6608 C   0  0  0  0  0  0  0  0  0  0  0  0
   -1.2338   -3.6222    2.0593 C   0  0  0  0  0  0  0  0  0  0  0  0
   -1.5347   -4.7401    2.3814 C   0  0  0  0  0  0  0  0  0  0  0  0
    1.9675    3.0958   -0.1521 H   0  0  0  0  0  0  0  0  0  0  0  0
   -0.3407    3.9606   -0.1264 H   0  0  0  0  0  0  0  0  0  0  0  0
    2.6741   -1.1146   -0.0147 H   0  0  0  0  0  0  0  0  0  0  0  0
   -3.5636    1.1627    0.0732 H   0  0  0  0  0  0  0  0  0  0  0  0
    3.5348    1.1930   -0.1337 H   0  0  0  0  0  0  0  0  0  0  0  0
   -2.7824    3.5309   -0.0533 H   0  0  0  0  0  0  0  0  0  0  0  0
   -1.8022   -1.6750    1.5308 H   0  0  0  0  0  0  0  0  0  0  0  0
   -0.2931   -1.7787    2.4538 H   0  0  0  0  0  0  0  0  0  0  0  0
   -1.8055   -5.7333    2.6555 H   0  0  0  0  0  0  0  0  0  0  0  0
  1  2  1  0  0  0  0
  1  4  1  0  0  0  0
  1  3  2  0  0  0  0
  2  5  2  0  0  0  0
  2  6  1  0  0  0  0
  3  7  1  0  0  0  0
  3  8  1  0  0  0  0
  4  9  2  0  0  0  0
  5 10  1  0  0  0  0
  5 15  1  0  0  0  0
  6 11  2  0  0  0  0
  6 16  1  0  0  0  0
  7 10  2  0  0  0  0
  7 17  1  0  0  0  0
  8 12  1  0  0  0  0
  9 11  1  0  0  0  0
  9 18  1  0  0  0  0
 10 19  1  0  0  0  0
 11 20  1  0  0  0  0
 12 13  1  0  0  0  0
 12 21  1  0  0  0  0
 12 22  1  0  0  0  0
 13 14  3  0  0  0  0
 14 23  1  0  0  0  0
M  END
>  <Mol Weight>
199.272

>  <Click ID>
CLK003_F09

>  <Plant Activity>
0

>  <Yeast Activity>
1

$$$$

 OpenBabel11211206023D

 27 28  0  0  0  0  0  0  0  0999 V2000
    0.4952   -2.5163    2.4005 N   0  0  0  0  0  0  0  0  0  0  0  0
    1.6905   -1.8153    2.4370 C   0  0  0  0  0  0  0  0  0  0  0  0
   -0.3885   -2.7178    1.3304 C   0  0  0  0  0  0  0  0  0  0  0  0
    0.3965   -3.0221    3.6813 C   0  0  0  0  0  0  0  0  0  0  0  0
    2.2281   -1.8898    3.6367 N   0  0  0  0  0  0  0  0  0  0  0  0
    2.3946   -0.9322    1.1232 S   0  0  0  0  0  0  0  0  0  0  0  0
   -1.6405   -3.4535    1.6344 C   0  0  0  0  0  0  0  0  0  0  0  0
   -0.1184   -2.3163    0.2061 O   0  0  0  0  0  0  0  0  0  0  0  0
    1.4124   -2.6493    4.4212 N   0  0  0  0  0  0  0  0  0  0  0  0
    3.9745   -0.4372    1.8751 C   0  0  0  0  0  0  0  0  0  0  0  0
   -2.3327   -4.0090    0.6283 C   0  0  0  0  0  0  0  0  0  0  0  0
    4.7788    0.3736    0.9511 C   0  0  0  0  0  0  0  0  0  0  0  0
   -3.5021   -4.7699    0.9020 C   0  0  0  0  0  0  0  0  0  0  0  0
    5.4464    1.0427    0.2095 C   0  0  0  0  0  0  0  0  0  0  0  0
   -4.3448   -5.4246    0.0113 C   0  0  0  0  0  0  0  0  0  0  0  0
   -3.9876   -5.0025    2.1722 O   0  0  0  0  0  0  0  0  0  0  0  0
   -5.3553   -6.0726    0.7614 C   0  0  0  0  0  0  0  0  0  0  0  0
   -5.0909   -5.7818    2.0744 C   0  0  0  0  0  0  0  0  0  0  0  0
   -0.4019   -3.6592    4.0315 H   0  0  0  0  0  0  0  0  0  0  0  0
   -1.9905   -3.5393    2.6539 H   0  0  0  0  0  0  0  0  0  0  0  0
    4.5337   -1.3371    2.1556 H   0  0  0  0  0  0  0  0  0  0  0  0
    3.7775    0.1372    2.7871 H   0  0  0  0  0  0  0  0  0  0  0  0
   -2.0032   -3.9176   -0.4040 H   0  0  0  0  0  0  0  0  0  0  0  0
    6.0369    1.6403   -0.4455 H   0  0  0  0  0  0  0  0  0  0  0  0
   -4.2314   -5.4369   -1.0646 H   0  0  0  0  0  0  0  0  0  0  0  0
   -6.1708   -6.6775    0.3907 H   0  0  0  0  0  0  0  0  0  0  0  0
   -5.5656   -6.0415    3.0106 H   0  0  0  0  0  0  0  0  0  0  0  0
  1  4  1  0  0  0  0
  1  2  1  0  0  0  0
  1  3  1  0  0  0  0
  2  5  2  0  0  0  0
  2  6  1  0  0  0  0
  3  8  2  0  0  0  0
  3  7  1  0  0  0  0
  4  9  2  0  0  0  0
  4 19  1  0  0  0  0
  5  9  1  0  0  0  0
  6 10  1  0  0  0  0
  7 11  2  0  0  0  0
  7 20  1  0  0  0  0
 10 12  1  0  0  0  0
 10 21  1  0  0  0  0
 10 22  1  0  0  0  0
 11 13  1  0  0  0  0
 11 23  1  0  0  0  0
 12 14  3  0  0  0  0
 13 15  2  0  0  0  0
 13 16  1  0  0  0  0
 14 24  1  0  0  0  0
 15 17  1  0  0  0  0
 15 25  1  0  0  0  0
 16 18  1  0  0  0  0
 17 18  2  0  0  0  0
 17 26  1  0  0  0  0
 18 27  1  0  0  0  0
M  END
>  <Mol Weight>
259.284

>  <Click ID>
CLK003_A10

>  <Plant Activity>
0

>  <Yeast Activity>
1

$$$$

 OpenBabel11211206023D

 38 39  0  0  0  0  0  0  0  0999 V2000
    0.5378   -2.8184    5.3191 N   0  0  0  0  0  0  0  0  0  0  0  0
    1.0349   -3.0491    6.5903 C   0  0  0  0  0  0  0  0  0  0  0  0
    1.0541   -3.2167    4.0782 C   0  0  0  0  0  0  0  0  0  0  0  0
   -0.6212   -2.1109    5.5637 C   0  0  0  0  0  0  0  0  0  0  0  0
    0.2682   -2.4752    7.4922 N   0  0  0  0  0  0  0  0  0  0  0  0
    2.5139   -3.8729    6.9593 S   0  0  0  0  0  0  0  0  0  0  0  0
    0.4900   -2.5357    2.8820 C   0  0  0  0  0  0  0  0  0  0  0  0
    1.9381   -4.0581    4.0087 O   0  0  0  0  0  0  0  0  0  0  0  0
   -0.7812   -1.8884    6.8457 N   0  0  0  0  0  0  0  0  0  0  0  0
    2.1582   -4.4806    8.6322 C   0  0  0  0  0  0  0  0  0  0  0  0
    0.8634   -2.9401    1.6572 C   0  0  0  0  0  0  0  0  0  0  0  0
    1.1156   -5.5157    8.6423 C   0  0  0  0  0  0  0  0  0  0  0  0
    0.3870   -2.3156    0.4144 C   0  0  0  0  0  0  0  0  0  0  0  0
    0.2504   -6.3482    8.6456 C   0  0  0  0  0  0  0  0  0  0  0  0
    0.2265   -3.1086   -0.7262 C   0  0  0  0  0  0  0  0  0  0  0  0
    0.1271   -0.9465    0.3122 C   0  0  0  0  0  0  0  0  0  0  0  0
   -0.2044   -2.5604   -1.9451 C   0  0  0  0  0  0  0  0  0  0  0  0
   -0.3256   -0.3930   -0.8907 C   0  0  0  0  0  0  0  0  0  0  0  0
   -0.4974   -1.1895   -2.0293 C   0  0  0  0  0  0  0  0  0  0  0  0
   -0.3222   -3.4961   -2.9418 O   0  0  0  0  0  0  0  0  0  0  0  0
   -1.0003   -0.7015   -3.2055 O   0  0  0  0  0  0  0  0  0  0  0  0
   -0.1240   -3.0417   -4.2749 C   0  0  0  0  0  0  0  0  0  0  0  0
   -0.8626    0.6952   -3.4379 C   0  0  0  0  0  0  0  0  0  0  0  0
   -1.3229   -1.8041    4.8024 H   0  0  0  0  0  0  0  0  0  0  0  0
   -0.1859   -1.7019    3.0030 H   0  0  0  0  0  0  0  0  0  0  0  0
    1.8872   -3.6434    9.2832 H   0  0  0  0  0  0  0  0  0  0  0  0
    3.0879   -4.9008    9.0296 H   0  0  0  0  0  0  0  0  0  0  0  0
    1.5416   -3.7848    1.5350 H   0  0  0  0  0  0  0  0  0  0  0  0
   -0.5252   -7.0787    8.6448 H   0  0  0  0  0  0  0  0  0  0  0  0
    0.4349   -4.1765   -0.6841 H   0  0  0  0  0  0  0  0  0  0  0  0
    0.2677   -0.2834    1.1620 H   0  0  0  0  0  0  0  0  0  0  0  0
   -0.5549    0.6678   -0.8997 H   0  0  0  0  0  0  0  0  0  0  0  0
    0.1354   -3.9125   -4.8851 H   0  0  0  0  0  0  0  0  0  0  0  0
    0.7059   -2.3306   -4.3518 H   0  0  0  0  0  0  0  0  0  0  0  0
   -1.0502   -2.6265   -4.6825 H   0  0  0  0  0  0  0  0  0  0  0  0
   -1.1108    0.8836   -4.4868 H   0  0  0  0  0  0  0  0  0  0  0  0
    0.1680    1.0284   -3.2743 H   0  0  0  0  0  0  0  0  0  0  0  0
   -1.5659    1.2658   -2.8233 H   0  0  0  0  0  0  0  0  0  0  0  0
  1  4  1  0  0  0  0
  1  2  1  0  0  0  0
  1  3  1  0  0  0  0
  2  5  2  0  0  0  0
  2  6  1  0  0  0  0
  3  8  2  0  0  0  0
  3  7  1  0  0  0  0
  4  9  2  0  0  0  0
  4 24  1  0  0  0  0
  5  9  1  0  0  0  0
  6 10  1  0  0  0  0
  7 11  2  0  0  0  0
  7 25  1  0  0  0  0
 10 12  1  0  0  0  0
 10 26  1  0  0  0  0
 10 27  1  0  0  0  0
 11 13  1  0  0  0  0
 11 28  1  0  0  0  0
 12 14  3  0  0  0  0
 13 15  1  0  0  0  0
 13 16  2  0  0  0  0
 14 29  1  0  0  0  0
 15 17  2  0  0  0  0
 15 30  1  0  0  0  0
 16 18  1  0  0  0  0
 16 31  1  0  0  0  0
 17 19  1  0  0  0  0
 17 20  1  0  0  0  0
 18 19  2  0  0  0  0
 18 32  1  0  0  0  0
 19 21  1  0  0  0  0
 20 22  1  0  0  0  0
 21 23  1  0  0  0  0
 22 33  1  0  0  0  0
 22 34  1  0  0  0  0
 22 35  1  0  0  0  0
 23 36  1  0  0  0  0
 23 37  1  0  0  0  0
 23 38  1  0  0  0  0
M  END
>  <Mol Weight>
329.374

>  <Click ID>
CLK003_A05

>  <Plant Activity>
0

>  <Yeast Activity>
1

$$$$

 OpenBabel11211206023D

 40 40  0  0  1  0  0  0  0  0999 V2000
    0.2381    0.2858   -0.2658 C   0  0  0  0  0  0  0  0  0  0  0  0
   -0.7395   -0.7290   -0.0683 C   0  0  0  0  0  0  0  0  0  0  0  0
    1.5972   -0.0809   -0.4083 C   0  0  0  0  0  0  0  0  0  0  0  0
   -0.1687    1.7510   -0.3460 C   0  0  0  0  0  0  0  0  0  0  0  0
   -0.3615   -2.0972   -0.1382 C   0  0  0  0  0  0  0  0  0  0  0  0
   -2.1907   -0.3676    0.1596 C   0  0  0  0  0  0  0  0  0  0  0  0
    1.9573   -1.4384   -0.3786 C   0  0  0  0  0  0  0  0  0  0  0  0
    2.7023    0.9340   -0.5585 C   0  0  0  0  0  0  0  0  0  0  0  0
   -0.0799    2.4746    1.0041 C   0  0  0  0  0  0  0  0  0  0  0  0
    0.9978   -2.4430   -0.2588 C   0  0  0  0  0  0  0  0  0  0  0  0
   -1.3924   -3.1989   -0.0403 C   0  0  0  0  0  0  0  0  0  0  0  0
   -0.5382    3.9460    0.9449 C   0  0  3  0  0  0  0  0  0  0  0  0
    1.2823   -3.7853   -0.2442 O   0  0  0  0  0  0  0  0  0  0  0  0
   -0.5390    4.5280    2.3021 C   0  0  0  0  0  0  0  0  0  0  0  0
    0.3423    4.7962    0.0262 C   0  0  0  0  0  0  0  0  0  0  0  0
   -1.8702    4.0023    0.4343 O   0  0  0  0  0  0  0  0  0  0  0  0
    2.6437   -4.1766   -0.3561 C   0  0  0  0  0  0  0  0  0  0  0  0
   -0.5543    5.0102    3.4049 C   0  0  0  0  0  0  0  0  0  0  0  0
   -1.1806    1.8294   -0.7599 H   0  0  0  0  0  0  0  0  0  0  0  0
    0.4526    2.2533   -1.0933 H   0  0  0  0  0  0  0  0  0  0  0  0
   -2.2977    0.5754    0.7023 H   0  0  0  0  0  0  0  0  0  0  0  0
   -2.6955   -1.1072    0.7893 H   0  0  0  0  0  0  0  0  0  0  0  0
   -2.7142   -0.2920   -0.7979 H   0  0  0  0  0  0  0  0  0  0  0  0
    3.0095   -1.6891   -0.4685 H   0  0  0  0  0  0  0  0  0  0  0  0
    2.4847    1.6453   -1.3597 H   0  0  0  0  0  0  0  0  0  0  0  0
    3.6519    0.4554   -0.8227 H   0  0  0  0  0  0  0  0  0  0  0  0
    2.8539    1.4697    0.3830 H   0  0  0  0  0  0  0  0  0  0  0  0
    0.9442    2.4224    1.3948 H   0  0  0  0  0  0  0  0  0  0  0  0
   -0.7042    1.9347    1.7292 H   0  0  0  0  0  0  0  0  0  0  0  0
   -2.3386   -2.9050   -0.5054 H   0  0  0  0  0  0  0  0  0  0  0  0
   -1.5672   -3.4566    1.0085 H   0  0  0  0  0  0  0  0  0  0  0  0
   -1.0776   -4.0994   -0.5782 H   0  0  0  0  0  0  0  0  0  0  0  0
    0.2581    4.4827   -1.0194 H   0  0  0  0  0  0  0  0  0  0  0  0
    1.3961    4.7541    0.3225 H   0  0  0  0  0  0  0  0  0  0  0  0
    0.0290    5.8476    0.0478 H   0  0  0  0  0  0  0  0  0  0  0  0
   -2.4542    3.6537    1.1295 H   0  0  0  0  0  0  0  0  0  0  0  0
    2.6791   -5.2702   -0.3379 H   0  0  0  0  0  0  0  0  0  0  0  0
    3.2295   -3.8113    0.4937 H   0  0  0  0  0  0  0  0  0  0  0  0
    3.0743   -3.8476   -1.3075 H   0  0  0  0  0  0  0  0  0  0  0  0
   -0.5697    5.4432    4.3771 H   0  0  0  0  0  0  0  0  0  0  0  0
  1  2  1  0  0  0  0
  1  3  2  0  0  0  0
  1  4  1  0  0  0  0
  2  5  2  0  0  0  0
  2  6  1  0  0  0  0
  3  7  1  0  0  0  0
  3  8  1  0  0  0  0
  4  9  1  0  0  0  0
  4 19  1  0  0  0  0
  4 20  1  0  0  0  0
  5 10  1  0  0  0  0
  5 11  1  0  0  0  0
  6 21  1  0  0  0  0
  6 22  1  0  0  0  0
  6 23  1  0  0  0  0
  7 10  2  0  0  0  0
  7 24  1  0  0  0  0
  8 25  1  0  0  0  0
  8 26  1  0  0  0  0
  8 27  1  0  0  0  0
  9 12  1  0  0  0  0
  9 28  1  0  0  0  0
  9 29  1  0  0  0  0
 10 13  1  0  0  0  0
 11 30  1  0  0  0  0
 11 31  1  0  0  0  0
 11 32  1  0  0  0  0
 12 16  1  0  0  0  0
 12 15  1  0  0  0  0
 12 14  1  0  0  0  0
 13 17  1  0  0  0  0
 14 18  3  0  0  0  0
 15 33  1  0  0  0  0
 15 34  1  0  0  0  0
 15 35  1  0  0  0  0
 16 36  1  0  0  0  0
 17 37  1  0  0  0  0
 17 38  1  0  0  0  0
 17 39  1  0  0  0  0
 18 40  1  0  0  0  0
M  END
>  <Mol Weight>
246.3447

>  <Click ID>
CLK002_H02

>  <Plant Activity>
0

>  <Yeast Activity>
1

$$$$

 OpenBabel11211206023D

 21 22  0  0  0  0  0  0  0  0999 V2000
   -0.4665    0.5378    0.0065 C   0  0  0  0  0  0  0  0  0  0  0  0
   -0.1048   -0.8087   -0.0328 C   0  0  0  0  0  0  0  0  0  0  0  0
   -1.8624    0.6835   -0.0574 N   0  0  0  0  0  0  0  0  0  0  0  0
    0.5051    1.5174    0.0978 C   0  0  0  0  0  0  0  0  0  0  0  0
   -1.3375   -1.5891   -0.1224 C   0  0  0  0  0  0  0  0  0  0  0  0
    1.2065   -1.2433    0.0123 C   0  0  0  0  0  0  0  0  0  0  0  0
   -2.4873   -0.5502   -0.1292 C   0  0  0  0  0  0  0  0  0  0  0  0
   -2.5749    1.9352    0.0007 C   0  0  0  0  0  0  0  0  0  0  0  0
    1.8454    1.1088    0.1460 C   0  0  0  0  0  0  0  0  0  0  0  0
   -1.4315   -2.7929   -0.1846 O   0  0  0  0  0  0  0  0  0  0  0  0
    2.1863   -0.2573    0.1029 C   0  0  0  0  0  0  0  0  0  0  0  0
   -3.6692   -0.8148   -0.1952 O   0  0  0  0  0  0  0  0  0  0  0  0
   -2.5902    2.4761    1.3673 C   0  0  0  0  0  0  0  0  0  0  0  0
    4.0080   -0.7605    0.1706 Br  0  0  0  0  0  0  0  0  0  0  0  0
   -2.6041    2.9156    2.4845 C   0  0  0  0  0  0  0  0  0  0  0  0
    0.2590    2.5731    0.1370 H   0  0  0  0  0  0  0  0  0  0  0  0
    1.4449   -2.3012   -0.0199 H   0  0  0  0  0  0  0  0  0  0  0  0
   -3.6039    1.7771   -0.3412 H   0  0  0  0  0  0  0  0  0  0  0  0
   -2.1080    2.6403   -0.6955 H   0  0  0  0  0  0  0  0  0  0  0  0
    2.6272    1.8627    0.2196 H   0  0  0  0  0  0  0  0  0  0  0  0
   -2.6238    3.2998    3.4792 H   0  0  0  0  0  0  0  0  0  0  0  0
  1  2  2  0  0  0  0
  1  3  1  0  0  0  0
  1  4  1  0  0  0  0
  2  6  1  0  0  0  0
  2  5  1  0  0  0  0
  3  7  1  0  0  0  0
  3  8  1  0  0  0  0
  4  9  2  0  0  0  0
  4 16  1  0  0  0  0
  5  7  1  0  0  0  0
  5 10  2  0  0  0  0
  6 11  2  0  0  0  0
  6 17  1  0  0  0  0
  7 12  2  0  0  0  0
  8 13  1  0  0  0  0
  8 18  1  0  0  0  0
  8 19  1  0  0  0  0
  9 11  1  0  0  0  0
  9 20  1  0  0  0  0
 11 14  1  0  0  0  0
 13 15  3  0  0  0  0
 15 21  1  0  0  0  0
M  END
>  <Mol Weight>
264.075

>  <Click ID>
CLK002_G07

>  <Plant Activity>
0

>  <Yeast Activity>
1

$$$$

 OpenBabel11211206023D

 36 37  0  0  0  0  0  0  0  0999 V2000
   -1.6875   -0.1442    0.4333 C   0  0  0  0  0  0  0  0  0  0  0  0
   -3.4540   -0.3321    0.4387 S   0  0  0  0  0  0  0  0  0  0  0  0
   -1.0830    0.8699   -0.3117 C   0  0  0  0  0  0  0  0  0  0  0  0
   -0.9189   -1.0426    1.1808 C   0  0  0  0  0  0  0  0  0  0  0  0
   -3.8251   -0.1154    2.0885 N   0  0  0  0  0  0  0  0  0  0  0  0
   -4.0400    0.7701   -0.2924 O   0  0  0  0  0  0  0  0  0  0  0  0
   -3.7286   -1.7083    0.0868 O   0  0  0  0  0  0  0  0  0  0  0  0
    0.3101    0.9852   -0.3030 C   0  0  0  0  0  0  0  0  0  0  0  0
    0.4720   -0.9238    1.1860 C   0  0  0  0  0  0  0  0  0  0  0  0
   -3.6703    1.2875    2.5936 C   0  0  0  0  0  0  0  0  0  0  0  0
   -5.1716   -0.6433    2.4748 C   0  0  0  0  0  0  0  0  0  0  0  0
    1.0951    0.0892    0.4414 C   0  0  0  0  0  0  0  0  0  0  0  0
   -3.8867    1.3078    4.1114 C   0  0  0  0  0  0  0  0  0  0  0  0
   -5.3275   -0.5570    3.9976 C   0  0  0  0  0  0  0  0  0  0  0  0
    2.5748    0.2472    0.3994 C   0  0  0  0  0  0  0  0  0  0  0  0
   -5.1808    0.7942    4.4605 O   0  0  0  0  0  0  0  0  0  0  0  0
    3.1755   -0.7995    1.0128 O   0  0  0  0  0  0  0  0  0  0  0  0
    3.1329    1.1891   -0.1393 O   0  0  0  0  0  0  0  0  0  0  0  0
    4.6061   -0.8224    0.9267 C   0  0  0  0  0  0  0  0  0  0  0  0
    5.0194   -1.5554   -0.2757 C   0  0  0  0  0  0  0  0  0  0  0  0
    5.3400   -2.1472   -1.2698 C   0  0  0  0  0  0  0  0  0  0  0  0
   -1.6787    1.5620   -0.9034 H   0  0  0  0  0  0  0  0  0  0  0  0
   -1.3990   -1.8361    1.7504 H   0  0  0  0  0  0  0  0  0  0  0  0
    0.7853    1.7703   -0.8902 H   0  0  0  0  0  0  0  0  0  0  0  0
    1.0566   -1.6323    1.7683 H   0  0  0  0  0  0  0  0  0  0  0  0
   -4.4163    1.9297    2.1107 H   0  0  0  0  0  0  0  0  0  0  0  0
   -2.6696    1.6678    2.3703 H   0  0  0  0  0  0  0  0  0  0  0  0
   -5.2695   -1.6900    2.1709 H   0  0  0  0  0  0  0  0  0  0  0  0
   -5.9489   -0.0477    1.9824 H   0  0  0  0  0  0  0  0  0  0  0  0
   -3.8285    2.3362    4.4815 H   0  0  0  0  0  0  0  0  0  0  0  0
   -3.1181    0.7208    4.6281 H   0  0  0  0  0  0  0  0  0  0  0  0
   -6.3233   -0.9028    4.2911 H   0  0  0  0  0  0  0  0  0  0  0  0
   -4.5894   -1.1891    4.5064 H   0  0  0  0  0  0  0  0  0  0  0  0
    4.9679   -1.3435    1.8196 H   0  0  0  0  0  0  0  0  0  0  0  0
    5.0322    0.1870    0.9588 H   0  0  0  0  0  0  0  0  0  0  0  0
    5.6152   -2.6655   -2.1594 H   0  0  0  0  0  0  0  0  0  0  0  0
  1  3  2  0  0  0  0
  1  4  1  0  0  0  0
  1  2  1  0  0  0  0
  2  7  2  0  0  0  0
  2  6  2  0  0  0  0
  2  5  1  0  0  0  0
  3  8  1  0  0  0  0
  3 22  1  0  0  0  0
  4  9  2  0  0  0  0
  4 23  1  0  0  0  0
  5 10  1  0  0  0  0
  5 11  1  0  0  0  0
  8 12  2  0  0  0  0
  8 24  1  0  0  0  0
  9 12  1  0  0  0  0
  9 25  1  0  0  0  0
 10 13  1  0  0  0  0
 10 26  1  0  0  0  0
 10 27  1  0  0  0  0
 11 14  1  0  0  0  0
 11 28  1  0  0  0  0
 11 29  1  0  0  0  0
 12 15  1  0  0  0  0
 13 16  1  0  0  0  0
 13 30  1  0  0  0  0
 13 31  1  0  0  0  0
 14 16  1  0  0  0  0
 14 32  1  0  0  0  0
 14 33  1  0  0  0  0
 15 18  2  0  0  0  0
 15 17  1  0  0  0  0
 17 19  1  0  0  0  0
 19 20  1  0  0  0  0
 19 34  1  0  0  0  0
 19 35  1  0  0  0  0
 20 21  3  0  0  0  0
 21 36  1  0  0  0  0
M  END
>  <Mol Weight>
309.338

>  <Click ID>
CLK002_F02

>  <Plant Activity>
0

>  <Yeast Activity>
1

$$$$
